<NUMBER OF ZONES> 23219 
<TOTAL OD FLOW> 
<END OF METADATA> 

Origin	5509971973	
		268238825 : 5;		94142442 : 5;		21659628 : 5;		21659629 : 5;		21659630 : 5;		94142447 : 5;		21659631 : 5;		94142445 : 5;		299270133 : 5;		299270134 : 5;

Origin	166297606	
		268238825 : 5;		94142442 : 5;		21659628 : 5;		21659629 : 5;		21659630 : 5;		94142447 : 5;		21659631 : 5;		94142445 : 5;		299270133 : 5;		299270134 : 5;

Origin	271450120	
		268238825 : 5;		94142442 : 5;		21659628 : 5;		21659629 : 5;		21659630 : 5;		94142447 : 5;		21659631 : 5;		94142445 : 5;		299270133 : 5;		299270134 : 5;

Origin	116129800	
		268238825 : 5;		94142442 : 5;		21659628 : 5;		21659629 : 5;		21659630 : 5;		94142447 : 5;		21659631 : 5;		94142445 : 5;		299270133 : 5;		299270134 : 5;

Origin	116129802	
		268238825 : 5;		94142442 : 5;		21659628 : 5;		21659629 : 5;		21659630 : 5;		94142447 : 5;		21659631 : 5;		94142445 : 5;		299270133 : 5;		299270134 : 5;

Origin	174981131	
		268238825 : 5;		94142442 : 5;		21659628 : 5;		21659629 : 5;		21659630 : 5;		94142447 : 5;		21659631 : 5;		94142445 : 5;		299270133 : 5;		299270134 : 5;

Origin	116129804	
		268238825 : 5;		94142442 : 5;		21659628 : 5;		21659629 : 5;		21659630 : 5;		94142447 : 5;		21659631 : 5;		94142445 : 5;		299270133 : 5;		299270134 : 5;

Origin	268140568	
		268238825 : 5;		94142442 : 5;		21659628 : 5;		21659629 : 5;		21659630 : 5;		94142447 : 5;		21659631 : 5;		94142445 : 5;		299270133 : 5;		299270134 : 5;

Origin	141557799	
		268238825 : 5;		94142442 : 5;		21659628 : 5;		21659629 : 5;		21659630 : 5;		94142447 : 5;		21659631 : 5;		94142445 : 5;		299270133 : 5;		299270134 : 5;

Origin	6690897971	
		268238825 : 5;		94142442 : 5;		21659628 : 5;		21659629 : 5;		21659630 : 5;		94142447 : 5;		21659631 : 5;		94142445 : 5;		299270133 : 5;		299270134 : 5;

