<NUMBER OF ZONES> 23219 
<TOTAL OD FLOW> 
<END OF METADATA> 

Origin	123495720	
		178765238 : 5;		5982508852 : 5;		94171402 : 5;		94171402 : 5;

Origin	123489766	
		94142447 : 5;		430803 : 5;

Origin	690200689	
		21648536 : 5;		21648536 : 5;		929508749 : 5;		21648577 : 5;

Origin	430770	
		644130 : 5;		94145770 : 5;		1759468653 : 5;		1731116570 : 5;		21648011 : 5;		6548373695 : 5;		1759468653 : 5;		510438311 : 5;		94212490 : 5;		94212490 : 5;

Origin	788203390	
		5222503192 : 5;

Origin	1988547027	
		5297593439 : 5;		25033563 : 5;		260800258 : 5;		25033566 : 5;		123256978 : 5;		94216327 : 5;		94216327 : 5;

Origin	27286700	
		21659622 : 5;		21659622 : 5;

Origin	94268747	
		5222503192 : 5;

Origin	14798303	
		123256923 : 5;		21659622 : 5;		21659622 : 5;		21659622 : 5;		94199168 : 5;		1142990067 : 5;		123256978 : 5;

Origin	94271277	
		94212490 : 5;		94212490 : 5;

Origin	160648013	
		5222503192 : 5;

Origin	2500448780	
		123256923 : 5;		21659622 : 5;		21659622 : 5;		21659622 : 5;		94199168 : 5;		1142990067 : 5;		123256978 : 5;

Origin	94258875	
		94212490 : 5;		94212490 : 5;

Origin	654572261	
		178765238 : 5;		94171402 : 5;		94171402 : 5;

Origin	60913509	
		94142447 : 5;		325664798 : 5;		94146144 : 5;

Origin	94149988	
		21648536 : 5;		21648536 : 5;		929508749 : 5;		21648577 : 5;

Origin	112036802	
		5222503192 : 5;		94212490 : 5;		94212490 : 5;

Origin	112039658	
		123256923 : 5;		21659622 : 5;		21659622 : 5;		21659622 : 5;		94199168 : 5;		1142990067 : 5;		123256978 : 5;

Origin	25075891	
		5222503192 : 5;

Origin	1363278398	
		5297593439 : 5;		25033634 : 5;		25033634 : 5;		25033563 : 5;		260800258 : 5;		25033566 : 5;		5297593439 : 5;		94216327 : 5;		94216327 : 5;

Origin	34819160	
		5222503192 : 5;

Origin	14798299	
		5297593439 : 5;		260800258 : 5;		123256978 : 5;		94216327 : 5;		94216327 : 5;

Origin	141569960	
		21659622 : 5;		21659622 : 5;		21659622 : 5;		1142990067 : 5;

Origin	166214859	
		178765238 : 5;		94145770 : 5;		6548373695 : 5;		510438311 : 5;		94171402 : 5;		94171402 : 5;

Origin	7304716	
		2249340458 : 5;		21648333 : 5;		2249340458 : 5;		21648333 : 5;

