<NUMBER OF ZONES> 23219 
<NUMBER OF NODES> 23219 
<FIRST THRU NODE> 1 
<NUMBER OF LINKS> 44612 
<END OF METADATA> 

~	Init node	Term node	Capacity	Length	Free Flow Time	B	Power	Speed limit	Toll	Type	;
	5509971973	148942879	9	35.57	4.2684	0.15	4	False	0	1	;
	166297606	25240349	78	311.12699999999995	22.401143999999995	0.15	4	True	0	1	;
	166297606	249076496	11	42.131	5.05572	0.15	4	True	0	1	;
	271450120	27339859	24	96.693	6.961895999999999	0.15	4	True	0	1	;
	271450120	442306	26	103.41499999999999	7.44588	0.15	4	True	0	1	;
	116129800	141552825	21	82.56700000000001	9.90804	0.15	4	True	0	1	;
	116129800	94258423	25	100.55199999999999	12.066239999999999	0.15	4	True	0	1	;
	116129802	116129800	32	128.348	15.401760000000001	0.15	4	True	0	1	;
	174981131	148943218	64	254.331	30.51972	0.15	4	True	0	1	;
	174981131	174978253	14	55.522	9.99396	0.15	4	True	0	1	;
	116129804	116130783	34	137.43999999999997	6.184799999999998	0.15	4	False	0	1	;
	116129804	116130176	8	32.442	3.89304	0.15	4	True	0	1	;
	116129804	140136435	18	72.144	8.65728	0.15	4	True	0	1	;
	268140568	353192573	18	71.431	8.57172	0.15	4	True	0	1	;
	141557799	140107707	35	138.924	10.002528	0.15	4	False	0	1	;
	141557799	141559263	10	41.004000000000005	2.9522880000000002	0.15	4	True	0	1	;
	6690897971	555509547	27	107.00999999999999	7.704719999999999	0.15	4	True	0	1	;
	6690897971	6795554135	5	20.869	0.939105	0.15	4	True	0	1	;
	209158195	368789066	43	172.77100000000002	20.732520000000005	0.15	4	True	0	1	;
	6180929592	64127730	2	9.678	0.6968160000000001	0.15	4	True	0	1	;
	6180929592	24924002	25	100.142	7.210224	0.15	4	False	0	1	;
	6171131962	21648747	2	8.011	0.96132	0.15	4	True	0	1	;
	6194954302	30558781	14	55.783	4.016376	0.15	4	True	0	1	;
	7228489799	162284136	51	202.808	9.126359999999998	0.15	4	False	0	1	;
	7228489799	248175139	60	240.531	10.823895	0.15	4	True	0	1	;
	1854603337	216034847	24	97.309	7.006247999999999	0.15	4	False	0	1	;
	1854603337	2811530570	10	39.896	2.872512	0.15	4	True	0	1	;
	245399630	245398807	40	158.372	19.004640000000002	0.15	4	True	0	1	;
	94175315	94174697	10	39.025	4.683	0.15	4	True	0	1	;
	94175315	94219783	53	212.752	15.318144000000002	0.15	4	True	0	1	;
	5383094356	2700151119	48	193.07	13.90104	0.15	4	True	0	1	;
	5383094356	2700151119	96	192.816	13.882752	0.15	4	True	0	1	;
	5383094357	5383094362	4	14.185	1.02132	0.15	4	True	0	1	;
	5383094357	4864063131	5	20.012	1.440864	0.15	4	False	0	1	;
	5383094357	27286727	10	38.859	1.7486549999999998	0.15	4	False	0	1	;
	5383094362	27288869	11	43.935	3.16332	0.15	4	True	0	1	;
	5383094362	27234301	81	325.658	14.65461	0.15	4	True	0	1	;
	3284697178	260661668	19	75.002	3.37509	0.15	4	True	0	1	;
	3284697178	3284697179	8	33.868	1.52406	0.15	4	True	0	1	;
	3284697179	260657637	2	6.542	0.29439	0.15	4	True	0	1	;
	25002088	25290282	70	278.745	33.4494	0.15	4	True	0	1	;
	25002088	25290281	21	84.907	10.18884	0.15	4	False	0	1	;
	21659758	17809572	21	82.793	9.935160000000002	0.15	4	False	0	1	;
	21659758	21659759	17	68.256	8.19072	0.15	4	False	0	1	;
	21659758	17975524	42	168.397	20.207639999999998	0.15	4	True	0	1	;
	21659759	21659758	17	68.256	8.19072	0.15	4	False	0	1	;
	21659759	17809569	22	87.238	10.46856	0.15	4	False	0	1	;
	21659772	21659773	15	61.086999999999996	7.330439999999999	0.15	4	True	0	1	;
	21659773	549777227	25	98.035	11.7642	0.15	4	False	0	1	;
	21659773	21659759	15	58.263000000000005	6.991560000000001	0.15	4	True	0	1	;
	21659773	21659803	21	84.668	10.160160000000001	0.15	4	False	0	1	;
	25198716	25199678	22	88.74500000000002	10.649400000000002	0.15	4	True	0	1	;
	25198716	25199639	33	130.785	9.41652	0.15	4	True	0	1	;
	25198716	25199592	32	127.817	9.202824	0.15	4	False	0	1	;
	4964974719	178882329	28	112.77699999999999	13.53324	0.15	4	False	0	1	;
	4964974719	268238167	22	89.64	6.45408	0.15	4	True	0	1	;
	203325570	203324085	13	52.087999999999994	2.34396	0.15	4	True	0	1	;
	906068099	327043132	6	25.411	6.0986400000000005	0.15	4	False	0	1	;
	677773445	175078684	10	41.583	4.98996	0.15	4	True	0	1	;
	430637190	654567033	25	98.28	7.07616	0.15	4	True	0	1	;
	256409741	1761555130	25	98.13400000000001	11.77608	0.15	4	True	0	1	;
	258048145	94121217	24	94.275	4.242375	0.15	4	True	0	1	;
	21659803	21659773	21	84.668	10.160160000000001	0.15	4	False	0	1	;
	21659803	17809569	12	47.771	5.73252	0.15	4	False	0	1	;
	21659803	6439759684	59	237.41499999999996	28.489799999999995	0.15	4	False	0	1	;
	21659818	21659821	10	38.49100000000001	4.618920000000001	0.15	4	True	0	1	;
	21659818	17809589	7	26.237	3.14844	0.15	4	False	0	1	;
	21659818	21659819	9	34.858000000000004	4.1829600000000005	0.15	4	False	0	1	;
	21659819	25034314	12	49.346000000000004	5.92152	0.15	4	True	0	1	;
	21659819	21659818	9	34.858000000000004	4.1829600000000005	0.15	4	False	0	1	;
	21659819	549792392	15	58.409	7.00908	0.15	4	False	0	1	;
	21659820	549792393	14	56.75	6.81	0.15	4	True	0	1	;
	21659820	21659819	10	41.449	4.973879999999999	0.15	4	True	0	1	;
	21659821	21659820	7	29.65	3.558	0.15	4	True	0	1	;
	21659821	549777113	29	114.938	13.79256	0.15	4	True	0	1	;
	258408623	258408724	30	120.394	14.447280000000001	0.15	4	False	0	1	;
	258408623	258407938	24	95.47099999999999	11.45652	0.15	4	True	0	1	;
	21659826	933275665	5	19.98	2.3976	0.15	4	False	0	1	;
	21659826	21659876	8	32.667	3.92004	0.15	4	True	0	1	;
	21659826	21659827	14	54.004999999999995	6.480599999999999	0.15	4	False	0	1	;
	21659827	25033912	11	45.547	5.46564	0.15	4	False	0	1	;
	21659827	17809588	10	41.763999999999996	5.01168	0.15	4	False	0	1	;
	21659827	21659826	14	54.005	6.4806	0.15	4	False	0	1	;
	5059182770	25625869	8	33.977	2.446344	0.15	4	True	0	1	;
	5059182770	241886816	7	27.786	2.000592	0.15	4	False	0	1	;
	5059182773	368195	167	667.4159999999999	48.053951999999995	0.15	4	True	0	1	;
	5059182771	1524568727	11	44.567	3.2088240000000003	0.15	4	False	0	1	;
	5059182771	728475987	12	46.479	3.346488	0.15	4	False	0	1	;
	5059182771	728471621	11	44.712	3.2192640000000003	0.15	4	True	0	1	;
	249168058	249168967	9	37.731	4.52772	0.15	4	False	0	1	;
	249168058	159883856	30	119.971	14.39652	0.15	4	True	0	1	;
	5059182779	5059182780	16	65.922	4.746384	0.15	4	True	0	1	;
	63111356	36481889	4	16.99	1.22328	0.15	4	True	0	1	;
	63111356	36476560	12	47.101	3.3912720000000003	0.15	4	True	0	1	;
	5059182780	6400526955	38	153.042	11.019024	0.15	4	False	0	1	;
	5059182780	676821311	18	71.426	5.142672	0.15	4	True	0	1	;
	884211905	25095582	19	77.004	5.544288000000001	0.15	4	True	0	1	;
	258048194	258048145	29	117.91699999999999	5.306265	0.15	4	True	0	1	;
	258048194	94121972	38	151.783	18.213959999999997	0.15	4	True	0	1	;
	2160033987	2160034030	6	25.414	1.829808	0.15	4	True	0	1	;
	2160033989	202808463	50	199.18200000000002	23.901840000000004	0.15	4	True	0	1	;
	2160033989	2160033997	5	19.787	1.424664	0.15	4	True	0	1	;
	267583686	202041972	35	139.238	10.025136	0.15	4	False	0	1	;
	267583686	5005371959	18	73.068	5.260896	0.15	4	True	0	1	;
	5059182789	25675623	73	293.082	21.101903999999998	0.15	4	True	0	1	;
	2160033997	202806611	46	185.69099999999997	22.282919999999994	0.15	4	False	0	1	;
	2160033997	2160034007	9	35.577	2.561544	0.15	4	True	0	1	;
	2160034007	2160034034	6	24.046	1.7313119999999997	0.15	4	True	0	1	;
	2160034007	2160034030	12	47.227000000000004	3.400344	0.15	4	False	0	1	;
	2160034007	5240597744	30	121.14099999999999	8.722152	0.15	4	False	0	1	;
	359071960	2519942226	7	27.951	1.257795	0.15	4	False	0	1	;
	359071964	2406748770	166	664.992	47.87942399999999	0.15	4	False	0	1	;
	359071964	27117303	34	134.537	9.686664	0.15	4	False	0	1	;
	96141540	96141641	39	155.84799999999998	18.701759999999997	0.15	4	True	0	1	;
	96141540	35514390	37	149.353	17.92236	0.15	4	True	0	1	;
	21659876	17975523	67	266.64000000000004	31.996800000000004	0.15	4	True	0	1	;
	21659876	17809572	24	95.205	11.4246	0.15	4	True	0	1	;
	256409832	151360238	14	54.449	6.53388	0.15	4	False	0	1	;
	256409832	256409987	23	92.727	11.12724	0.15	4	True	0	1	;
	256409832	151360584	27	108.08200000000001	12.96984	0.15	4	False	0	1	;
	169279721	169279414	13	51.232000000000006	6.14784	0.15	4	False	0	1	;
	169279721	169280514	19	76.974	9.236880000000001	0.15	4	False	0	1	;
	169279721	169280138	26	104.395	12.5274	0.15	4	False	0	1	;
	175014120	94143087	25	99.208	11.904959999999999	0.15	4	True	0	1	;
	175014120	665070909	11	42.152	3.0349440000000003	0.15	4	False	0	1	;
	175014120	243635109	14	54.51	3.92472	0.15	4	False	0	1	;
	2160034030	2160034007	12	47.227000000000004	3.400344	0.15	4	False	0	1	;
	2160034030	202809157	50	200.27899999999997	14.420087999999998	0.15	4	False	0	1	;
	2160034030	2160033989	5	19.266	1.3871519999999997	0.15	4	True	0	1	;
	2160034034	2160033987	28	111.129	5.000805000000001	0.15	4	True	0	1	;
	2160034034	2160033987	12	23.992000000000004	1.7274240000000003	0.15	4	True	0	1	;
	252969207	27234717	47	189.108	8.50986	0.15	4	True	0	1	;
	252969207	2722937399	7	28.705000000000002	1.291725	0.15	4	True	0	1	;
	175046904	94138525	22	86.56099999999999	10.387319999999999	0.15	4	True	0	1	;
	175046904	175047091	12	46.979	5.63748	0.15	4	True	0	1	;
	244580618	382057	85	339.812	24.466464	0.15	4	False	0	1	;
	244580618	235830493	19	77.93299999999999	5.6111759999999995	0.15	4	True	0	1	;
	6200688912	1757030783	4	16.652	1.198944	0.15	4	False	0	1	;
	6200688912	32560679	42	168.399	7.577955	0.15	4	True	0	1	;
	6200688912	21660107	26	104.844	7.548767999999999	0.15	4	False	0	1	;
	178880787	2113426686	21	82.67699999999999	3.7204649999999995	0.15	4	True	0	1	;
	178880787	260425771	5	20.478	2.45736	0.15	4	True	0	1	;
	178880787	2113435429	8	31.44	3.7728	0.15	4	True	0	1	;
	258408724	258408623	30	120.394	14.447280000000001	0.15	4	False	0	1	;
	258408724	258407091	41	165.91299999999998	19.90956	0.15	4	True	0	1	;
	94208275	94176332	19	74.69200000000001	8.963040000000001	0.15	4	True	0	1	;
	94208275	94208286	33	131.924	15.83088	0.15	4	True	0	1	;
	94208278	94208279	15	60.279	2.7125550000000005	0.15	4	True	0	1	;
	94208278	94211142	28	112.64599999999999	5.06907	0.15	4	True	0	1	;
	94208279	299271453	26	102.339	4.6052550000000005	0.15	4	True	0	1	;
	94208279	94211916	47	186.03100000000003	8.371395000000001	0.15	4	True	0	1	;
	332431641	94189169	28	113.673	13.64076	0.15	4	True	0	1	;
	332431641	2448382393	10	40.92400000000001	4.910880000000001	0.15	4	True	0	1	;
	332431642	2156740988	34	136.726	6.15267	0.15	4	True	0	1	;
	332431642	26503666	6	22.636000000000003	1.01862	0.15	4	False	0	1	;
	332431642	202043454	29	115.09700000000001	5.179365	0.15	4	False	0	1	;
	94208286	369331056	36	142.33700000000002	17.080440000000003	0.15	4	True	0	1	;
	94208286	94208287	6	23.426000000000002	2.8111200000000003	0.15	4	True	0	1	;
	94208287	94208290	32	128.088	15.37056	0.15	4	True	0	1	;
	94208290	19722931	22	88.72	6.38784	0.15	4	True	0	1	;
	6203408676	5982508852	42	166.037	11.954664000000001	0.15	4	True	0	1	;
	6203408676	6203408677	5	20.263	1.458936	0.15	4	True	0	1	;
	6203408677	123457135	2	9.315	0.67068	0.15	4	True	0	1	;
	227213605	227211630	7	27.298	1.9654559999999999	0.15	4	True	0	1	;
	227213605	160034963	8	30.993	2.231496	0.15	4	True	0	1	;
	332431657	1721218995	5	18.464	0.83088	0.15	4	True	0	1	;
	332431658	216034547	36	143.525	10.3338	0.15	4	True	0	1	;
	332431658	1721219009	6	24.032	1.08144	0.15	4	True	0	1	;
	332431660	332431658	3	11.668000000000001	0.5250600000000001	0.15	4	True	0	1	;
	21659950	305208580	18	73.673	5.304456	0.15	4	True	0	1	;
	21659950	21660948	42	168.018	12.097296	0.15	4	True	0	1	;
	21659950	21660916	14	54.422	3.9183839999999996	0.15	4	False	0	1	;
	21659950	368323	25	99.135	7.13772	0.15	4	False	0	1	;
	175046959	94138525	12	49.923	5.990760000000001	0.15	4	True	0	1	;
	175046959	175047091	22	86.61	10.3932	0.15	4	True	0	1	;
	21659957	368318	25	99.018	7.129296	0.15	4	True	0	1	;
	21659957	21660039	18	72.11800000000001	5.192496000000001	0.15	4	True	0	1	;
	178880823	1848652702	48	191.613	22.993560000000002	0.15	4	False	0	1	;
	178880823	178765867	12	48.126	5.77512	0.15	4	False	0	1	;
	139264323	144503587	22	87.976	10.55712	0.15	4	True	0	1	;
	139264323	144496998	16	64.541	7.74492	0.15	4	False	0	1	;
	139264323	139310605	15	59.182	7.10184	0.15	4	False	0	1	;
	139264323	139310596	18	70.46300000000001	8.45556	0.15	4	True	0	1	;
	343703877	371207006	17	66.241	4.7693520000000005	0.15	4	False	0	1	;
	343703877	2991140006	8	33.03	2.37816	0.15	4	False	0	1	;
	1962508614	271449285	67	269.438	19.399535999999998	0.15	4	False	0	1	;
	1962508614	1860679670	20	79.191	3.5635950000000003	0.15	4	True	0	1	;
	175079750	175080067	19	77.141	3.4713450000000003	0.15	4	False	0	1	;
	175079750	6198530096	28	111.84700000000001	8.052984	0.15	4	True	0	1	;
	272695623	27234877	7	28.279000000000003	1.272555	0.15	4	False	0	1	;
	272695623	27234846	45	178.73	12.86856	0.15	4	True	0	1	;
	96141641	94152748	3	13.818	1.6581599999999999	0.15	4	True	0	1	;
	141558085	141556844	6	23.971	1.7259120000000001	0.15	4	True	0	1	;
	141558085	141571672	12	49.208	3.542976	0.15	4	False	0	1	;
	141558085	360988	8	33.878	2.439216	0.15	4	False	0	1	;
	128057687	125393728	53	212.433	15.295175999999998	0.15	4	True	0	1	;
	128057687	141605425	18	70.16	8.4192	0.15	4	False	0	1	;
	1941045592	1941046755	4	16.919	0.761355	0.15	4	False	0	1	;
	258146661	258148183	33	130.161	5.857245	0.15	4	True	0	1	;
	258146661	567379760	42	169.41	20.3292	0.15	4	True	0	1	;
	142639464	116118814	12	47.65	2.14425	0.15	4	False	0	1	;
	6721864042	367917	12	47.016	3.385152	0.15	4	True	0	1	;
	110517378	112012920	9	35.506	1.5977700000000001	0.15	4	False	0	1	;
	110517378	36483678	29	115.766	5.2094700000000005	0.15	4	True	0	1	;
	110517378	112010331	12	48.227000000000004	5.787240000000001	0.15	4	True	0	1	;
	6176080241	470150	26	102.663	7.391736	0.15	4	False	0	1	;
	6176080241	7594346941	7	28.712	2.0672639999999998	0.15	4	True	0	1	;
	110517381	110509773	54	215.533	9.698984999999999	0.15	4	True	0	1	;
	110517381	110512079	34	136.81099999999998	16.417319999999997	0.15	4	True	0	1	;
	116130176	116146936	45	179.123	8.060535	0.15	4	True	0	1	;
	116130176	139232476	32	126.48100000000001	15.17772	0.15	4	True	0	1	;
	256409987	5660252321	10	39.415	1.773675	0.15	4	False	0	1	;
	256409987	256409741	32	126.72400000000002	5.702580000000001	0.15	4	True	0	1	;
	21660038	21660045	24	96.675	6.9606	0.15	4	True	0	1	;
	21660038	1962530964	25	99.648	7.174656	0.15	4	False	0	1	;
	21660038	299017904	25	100.20700000000001	7.214904000000001	0.15	4	False	0	1	;
	21660039	21660038	24	97.85	7.0452	0.15	4	True	0	1	;
	21660039	4061931502	18	71.736	5.164992	0.15	4	False	0	1	;
	21660039	21292970	25	100.098	7.207056	0.15	4	False	0	1	;
	695566727	661235	10	38.504999999999995	2.7723599999999995	0.15	4	True	0	1	;
	695566727	185877802	4	16.209	0.729405	0.15	4	False	0	1	;
	353206666	148944193	5	19.025	2.283	0.15	4	True	0	1	;
	1292272011	151360041	12	47.279	5.6734800000000005	0.15	4	True	0	1	;
	1292272011	1292272127	33	130.169	5.857605	0.15	4	False	0	1	;
	21660044	34816758	25	98.29100000000001	7.076952	0.15	4	False	0	1	;
	21660044	34816570	5	21.883	1.575576	0.15	4	True	0	1	;
	21660044	368310	24	97.945	7.05204	0.15	4	False	0	1	;
	5152178573	5422508980	7	27.046	1.947312	0.15	4	True	0	1	;
	5152178573	209138149	73	292.714	15.053862857142855	0.15	4	True	0	1	;
	21660045	21660044	18	73.944	5.323968000000001	0.15	4	True	0	1	;
	21660045	368313	25	98.842	7.116624	0.15	4	False	0	1	;
	21660045	176932548	5	18.35	1.3212	0.15	4	False	0	1	;
	21660043	368308	25	98.22	7.07184	0.15	4	False	0	1	;
	21660043	21659950	23	91.49300000000001	6.587496000000001	0.15	4	True	0	1	;
	21660043	21660924	35	140.162	10.091664	0.15	4	False	0	1	;
	110517384	110517381	8	31.031000000000002	3.72372	0.15	4	True	0	1	;
	110517384	622497519	43	173.93900000000002	12.523608000000001	0.15	4	False	0	1	;
	110517384	644084	25	98.048	7.059456	0.15	4	False	0	1	;
	5152178580	7151193865	49	194.21699999999996	13.983623999999997	0.15	4	True	0	1	;
	5152178580	5152178583	6	22.557	1.624104	0.15	4	True	0	1	;
	5152178583	209135904	95	378.963	19.489525714285715	0.15	4	True	0	1	;
	1280606615	579625588	6	22.727	2.72724	0.15	4	True	0	1	;
	1280606615	123255453	39	157.88	11.36736	0.15	4	False	0	1	;
	1280606615	644090	11	42.212	3.039264	0.15	4	False	0	1	;
	110517387	110550432	35	140.674	16.88088	0.15	4	True	0	1	;
	2602172835	249743393	21	84.017	3.780765	0.15	4	False	0	1	;
	1989837228	25188963	17	66.12299999999999	7.934759999999999	0.15	4	True	0	1	;
	1989837228	1756949012	46	182.943	21.95316	0.15	4	False	0	1	;
	1280606637	579625588	3	10.327	1.23924	0.15	4	False	0	1	;
	1280606637	1280606615	6	24.275	2.913	0.15	4	True	0	1	;
	1804894643	24911945	52	208.659	25.039080000000002	0.15	4	False	0	1	;
	175047091	175043447	13	53.33099999999999	6.3997199999999985	0.15	4	True	0	1	;
	368542144	2580430969	6	24.302	2.9162399999999997	0.15	4	True	0	1	;
	368542144	368542291	7	28.85	3.462	0.15	4	True	0	1	;
	25625024	25624244	48	192.49	13.85928	0.15	4	True	0	1	;
	24969670	59854309	12	46.291000000000004	8.33238	0.15	4	True	0	1	;
	418054603	60913097	21	83.68299999999999	3.765735	0.15	4	True	0	1	;
	418054603	244455460	8	30.809999999999995	1.3864499999999997	0.15	4	True	0	1	;
	21660107	260928395	5	18.092	1.302624	0.15	4	False	0	1	;
	21660107	32560666	44	176.092	7.924140000000001	0.15	4	True	0	1	;
	21660107	6200688912	26	104.844	7.548767999999999	0.15	4	False	0	1	;
	24969677	24969670	13	53.107	9.55926	0.15	4	True	0	1	;
	24969677	24972212	28	113.681	20.46258	0.15	4	True	0	1	;
	333677006	368074	8	30.051000000000002	1.352295	0.15	4	False	0	1	;
	333677006	268222431	30	119.94800000000001	5.397660000000001	0.15	4	False	0	1	;
	333677006	333674495	28	112.55499999999999	13.5066	0.15	4	True	0	1	;
	24969685	24969677	15	61.957	11.15226	0.15	4	True	0	1	;
	24969685	24969692	18	70.56500000000001	12.7017	0.15	4	True	0	1	;
	24969692	368233	16	62.2	4.4784	0.15	4	True	0	1	;
	164102622	110562477	67	269.38	19.39536	0.15	4	True	0	1	;
	164102622	164102984	8	31.162	2.243664	0.15	4	True	0	1	;
	25625054	25625056	9	37.793	2.7210959999999997	0.15	4	False	0	1	;
	25625054	25624259	38	152.391	10.972152	0.15	4	False	0	1	;
	25625056	25625239	9	34.727	2.5003439999999997	0.15	4	False	0	1	;
	25625056	25625054	9	37.793	2.7210959999999997	0.15	4	False	0	1	;
	25625056	25625261	19	77.812	5.602464	0.15	4	True	0	1	;
	360930	480690113	39	154.001	18.48012	0.15	4	False	0	1	;
	360930	361704	29	114.347	13.721639999999999	0.15	4	False	0	1	;
	360932	253316556	25	100.436	7.2313920000000005	0.15	4	False	0	1	;
	360932	360933	38	150.20800000000003	18.02496	0.15	4	False	0	1	;
	360932	252659093	11	44.575	3.2094	0.15	4	False	0	1	;
	360932	21657548	16	65.22800000000001	4.696416	0.15	4	False	0	1	;
	360933	1806474795	34	134.936	16.192320000000002	0.15	4	True	0	1	;
	360933	100289178	29	114.92999999999999	8.27496	0.15	4	False	0	1	;
	360933	360932	38	150.208	18.02496	0.15	4	False	0	1	;
	360935	246999012	24	95.215	11.4258	0.15	4	False	0	1	;
	360935	251514416	18	72.586	8.71032	0.15	4	True	0	1	;
	360935	246263427	29	114.794	13.775279999999999	0.15	4	False	0	1	;
	360935	2529948847	36	143.70999999999998	10.347119999999999	0.15	4	False	0	1	;
	360935	246998815	43	173.78799999999998	12.512735999999999	0.15	4	False	0	1	;
	360937	360938	26	103.074	7.421327999999999	0.15	4	False	0	1	;
	360937	921170521	19	76.73500000000001	9.208200000000001	0.15	4	True	0	1	;
	360937	49889917	12	47.143	3.3942959999999998	0.15	4	False	0	1	;
	360938	246999320	9	34.308	2.470176	0.15	4	False	0	1	;
	360938	360937	26	103.074	7.421327999999999	0.15	4	False	0	1	;
	360938	49889201	55	218.55499999999998	15.735959999999997	0.15	4	False	0	1	;
	360938	100292096	22	87.081	6.269832000000001	0.15	4	False	0	1	;
	175014385	583006276	16	65.765	4.73508	0.15	4	True	0	1	;
	360946	36598216	22	88.60300000000001	6.379416000000001	0.15	4	True	0	1	;
	360946	36481290	31	123.91900000000001	8.922168000000001	0.15	4	True	0	1	;
	94110195	94110199	19	76.44	9.1728	0.15	4	True	0	1	;
	332202487	268227938	5	21.74	0.9783	0.15	4	True	0	1	;
	94110200	17809179	13	50.864999999999995	2.2889249999999994	0.15	4	True	0	1	;
	94110199	1757697270	82	329.292	39.51504	0.15	4	True	0	1	;
	94110199	94110200	14	57.774	6.93288	0.15	4	True	0	1	;
	968131063	358874150	13	52.184000000000005	3.7572480000000006	0.15	4	True	0	1	;
	968131063	968124676	15	60.937000000000005	2.742165	0.15	4	False	0	1	;
	1292272127	1292272011	33	130.16899999999998	5.8576049999999995	0.15	4	False	0	1	;
	340394504	153506005	19	76.97300000000001	9.236760000000002	0.15	4	True	0	1	;
	340394504	390306	26	105.43	7.59096	0.15	4	True	0	1	;
	340394507	25034649	2	8.434	0.607248	0.15	4	True	0	1	;
	273416715	27235462	12	47.308	3.406176	0.15	4	False	0	1	;
	273416715	235388731	11	43.036	1.93662	0.15	4	True	0	1	;
	273416715	27234196	8	30.342000000000002	2.1846240000000003	0.15	4	False	0	1	;
	248578575	1884431125	23	93.009	4.185405	0.15	4	False	0	1	;
	248578575	327203983	49	196.20000000000002	8.829	0.15	4	False	0	1	;
	248578575	248578600	34	136.19	6.12855	0.15	4	False	0	1	;
	360977	125385881	25	98.847	7.116983999999999	0.15	4	True	0	1	;
	360977	36480710	9	34.69	4.1628	0.15	4	True	0	1	;
	360977	100812067	7	27.070999999999998	1.9491119999999997	0.15	4	True	0	1	;
	360978	36476892	36	144.417	17.33004	0.15	4	True	0	1	;
	360978	36476946	12	46.524	3.349728	0.15	4	True	0	1	;
	248578580	94134800	31	123.18900000000001	5.543505000000001	0.15	4	False	0	1	;
	248578580	1884431125	25	98.15599999999999	4.41702	0.15	4	False	0	1	;
	360980	5700619789	5	18.070999999999998	1.3011119999999998	0.15	4	False	0	1	;
	360980	1762423633	12	46.157000000000004	3.3233040000000003	0.15	4	False	0	1	;
	360980	322690568	6	22.752000000000002	2.7302400000000002	0.15	4	True	0	1	;
	360982	112014705	7	26.914	1.9378080000000002	0.15	4	True	0	1	;
	360982	110517369	41	164.29199999999997	11.829023999999999	0.15	4	False	0	1	;
	360982	112014706	15	58.231	4.192632	0.15	4	False	0	1	;
	353206807	353206666	45	181.356	21.762719999999998	0.15	4	True	0	1	;
	353206807	353206666	79	157.42999999999998	18.891599999999997	0.15	4	True	0	1	;
	360983	116118819	36	142.11899999999997	10.232567999999999	0.15	4	False	0	1	;
	360983	116125151	8	31.641000000000005	2.2781520000000004	0.15	4	False	0	1	;
	360983	142361613	10	39.981	2.878632	0.15	4	True	0	1	;
	260768281	34818739	5	19.130000000000003	0.8608500000000002	0.15	4	False	0	1	;
	260768281	34818420	5	21.187	1.525464	0.15	4	True	0	1	;
	360986	116147133	36	142.805	17.1366	0.15	4	True	0	1	;
	360986	116131632	16	64.64399999999999	4.654367999999999	0.15	4	False	0	1	;
	360986	140145854	46	183.27	21.9924	0.15	4	False	0	1	;
	252805659	332434734	39	156.893	7.060185000000001	0.15	4	True	0	1	;
	252805659	94151281	14	57.604	6.9124799999999995	0.15	4	True	0	1	;
	6967198236	169293797	8	31.542	2.271024	0.15	4	True	0	1	;
	6967198236	371207006	10	41.602999999999994	2.9954159999999996	0.15	4	True	0	1	;
	360988	89163134	55	218.344	15.720768	0.15	4	False	0	1	;
	360988	666986356	23	93.763	6.750936000000001	0.15	4	True	0	1	;
	360988	141558085	8	33.878	2.439216	0.15	4	False	0	1	;
	360990	166450259	35	138.183	9.949176	0.15	4	True	0	1	;
	360990	89163134	15	60.87	4.38264	0.15	4	False	0	1	;
	360990	34819161	23	91.695	6.60204	0.15	4	True	0	1	;
	360990	29414561	44	174.103	12.535416000000001	0.15	4	False	0	1	;
	360990	244455597	42	169.65800000000002	12.215376000000001	0.15	4	False	0	1	;
	360991	34818713	9	34.364	2.474208	0.15	4	False	0	1	;
	360991	14798307	28	111.51700000000001	8.029224000000001	0.15	4	True	0	1	;
	360991	166452976	24	97.25099999999999	7.002071999999999	0.15	4	False	0	1	;
	360995	224364902	82	326.20399999999995	39.144479999999994	0.15	4	True	0	1	;
	360995	989286407	17	66.866	4.814352	0.15	4	True	0	1	;
	360996	34818779	6	23.742	1.7094239999999998	0.15	4	True	0	1	;
	360996	5569293867	7	29.693	2.137896	0.15	4	True	0	1	;
	360997	264542426	13	50.737	3.653064	0.15	4	True	0	1	;
	360997	392015132	7	27.842000000000002	2.004624	0.15	4	True	0	1	;
	360999	295137123	11	42.193	3.037896	0.15	4	False	0	1	;
	360999	295135707	98	390.46600000000007	28.113552000000006	0.15	4	True	0	1	;
	360999	295135550	49	196.529	14.150088	0.15	4	False	0	1	;
	360999	34818898	14	57.845	4.16484	0.15	4	False	0	1	;
	248578600	94133087	4	14.045	0.632025	0.15	4	False	0	1	;
	248578600	1884431128	46	184.621	22.154519999999998	0.15	4	True	0	1	;
	248578600	248578575	34	136.19	6.12855	0.15	4	False	0	1	;
	177308201	177308558	52	206.013	9.270585	0.15	4	True	0	1	;
	177308201	245272062	33	132.952	15.95424	0.15	4	False	0	1	;
	177308201	177308681	27	107.063	4.817835	0.15	4	False	0	1	;
	177308201	1088436936	22	88.224	6.352128	0.15	4	False	0	1	;
	361001	4414972417	1	5.653	0.254385	0.15	4	False	0	1	;
	361001	6132156249	19	75.399	5.428728	0.15	4	True	0	1	;
	361000	177268309	22	89.357	6.4337040000000005	0.15	4	False	0	1	;
	361000	295135510	58	231.952	16.700544	0.15	4	False	0	1	;
	361000	177268978	58	232.493	16.739496	0.15	4	False	0	1	;
	361000	134579176	36	145.66699999999997	10.488024	0.15	4	False	0	1	;
	361003	2589568355	7	26.28	1.1826	0.15	4	False	0	1	;
	361003	358874150	88	350.25399999999996	42.03048	0.15	4	False	0	1	;
	1886061102	267572970	4	15.145	1.09044	0.15	4	True	0	1	;
	1886061102	672221671	36	144.09799999999998	10.375055999999999	0.15	4	False	0	1	;
	3693642293	5222265998	33	131.768	9.487296	0.15	4	True	0	1	;
	3693642293	4692446096	12	47.466	5.69592	0.15	4	True	0	1	;
	3693642293	5568703239	6	24.756	1.11402	0.15	4	True	0	1	;
	1027146301	260661668	14	55.924	2.51658	0.15	4	True	0	1	;
	94241344	56976634	4	14.316	1.0307520000000001	0.15	4	False	0	1	;
	94241344	273099312	18	72.28399999999999	8.674079999999998	0.15	4	True	0	1	;
	94241344	54794649	6	22.69	1.63368	0.15	4	False	0	1	;
	361024	358905775	14	56.115	2.525175	0.15	4	True	0	1	;
	361024	356300472	50	201.05	9.04725	0.15	4	False	0	1	;
	361027	358913441	10	39.342999999999996	1.7704349999999998	0.15	4	True	0	1	;
	361027	1758970671	160	638.295	45.95724	0.15	4	False	0	1	;
	1425637956	3034259850	88	353.522	42.42264	0.15	4	True	0	1	;
	1425637956	15378802	3	13.128	1.57536	0.15	4	True	0	1	;
	361031	26588378	26	102.074	7.349327999999999	0.15	4	True	0	1	;
	361031	4603914571	7	26.378999999999998	1.8992879999999999	0.15	4	True	0	1	;
	361031	247352879	31	125.55799999999999	9.040175999999999	0.15	4	False	0	1	;
	361032	26588347	16	62.155	7.4586	0.15	4	True	0	1	;
	361032	26588366	45	181.11599999999999	13.040352	0.15	4	True	0	1	;
	94208583	94217441	18	70.478	8.45736	0.15	4	True	0	1	;
	94208583	2502992858	16	62.928	7.55136	0.15	4	True	0	1	;
	361036	26588388	37	146.864	10.574208	0.15	4	True	0	1	;
	361041	25034117	7	29.064	3.4876799999999997	0.15	4	True	0	1	;
	361041	2458010977	4	15.612000000000002	1.1240640000000002	0.15	4	True	0	1	;
	361042	21659628	17	67.464	8.09568	0.15	4	True	0	1	;
	361042	1165949167	13	52.956	3.812832	0.15	4	True	0	1	;
	361042	1142990090	38	151.38199999999998	10.899503999999999	0.15	4	False	0	1	;
	368542291	268238825	6	22.761	2.7313199999999997	0.15	4	True	0	1	;
	361044	21647889	3	10.109	0.727848	0.15	4	False	0	1	;
	361044	361753	22	89.322	6.431184	0.15	4	True	0	1	;
	361044	361747	11	45.237	3.257064	0.15	4	False	0	1	;
	361044	361748	42	166.493	11.987495999999998	0.15	4	True	0	1	;
	361045	15859484	22	89.935	10.7922	0.15	4	True	0	1	;
	361045	21648333	34	136.044	9.795168	0.15	4	False	0	1	;
	361045	21648537	71	285.95700000000005	20.588904000000003	0.15	4	False	0	1	;
	361045	21648012	23	90.604	6.523488	0.15	4	False	0	1	;
	361043	1981095121	11	44.585	3.21012	0.15	4	False	0	1	;
	361043	361753	22	87.542	10.505040000000001	0.15	4	True	0	1	;
	361043	21648029	6	23.011	1.6567919999999998	0.15	4	False	0	1	;
	361047	549792392	14	56.981	6.83772	0.15	4	False	0	1	;
	361047	17809588	23	92.54799999999999	11.105759999999998	0.15	4	False	0	1	;
	361048	933275665	5	18.564	2.22768	0.15	4	False	0	1	;
	361048	25033996	16	63.867999999999995	7.66416	0.15	4	False	0	1	;
	6182175313	204834024	10	41.888999999999996	1.8850049999999998	0.15	4	False	0	1	;
	361050	25034407	6	23.967	2.8760399999999997	0.15	4	False	0	1	;
	361050	25033096	11	44.304	5.316479999999999	0.15	4	False	0	1	;
	361050	361059	16	65.295	4.70124	0.15	4	False	0	1	;
	361050	7049374628	26	102.952	7.4125440000000005	0.15	4	False	0	1	;
	361058	792991	35	139.304	16.71648	0.15	4	False	0	1	;
	361058	480690113	3	12.318999999999999	1.4782799999999998	0.15	4	False	0	1	;
	361058	15035563	24	97.989	11.75868	0.15	4	False	0	1	;
	361059	25034403	21	82.593	9.911159999999999	0.15	4	True	0	1	;
	361059	1134402753	10	38.195	1.718775	0.15	4	False	0	1	;
	361059	361060	30	118.30700000000002	8.518104000000001	0.15	4	False	0	1	;
	361059	361050	16	65.295	4.70124	0.15	4	False	0	1	;
	361060	25034403	29	114.92699999999999	8.274743999999998	0.15	4	False	0	1	;
	361060	25032939	22	87.637	6.309864	0.15	4	False	0	1	;
	361060	25101533	15	59.635000000000005	7.156200000000001	0.15	4	False	0	1	;
	361060	361059	30	118.307	8.518104000000001	0.15	4	False	0	1	;
	361062	367510	33	130.767	9.415224	0.15	4	True	0	1	;
	96141927	96142019	51	205.983	24.71796	0.15	4	True	0	1	;
	96141927	94196587	31	122.20200000000001	14.664240000000003	0.15	4	True	0	1	;
	94143079	260688993	46	183.22600000000003	13.192272000000003	0.15	4	True	0	1	;
	94143078	94143079	31	125.303	22.55454	0.15	4	True	0	1	;
	94143078	94156558	39	157.16000000000003	18.859200000000005	0.15	4	True	0	1	;
	36471402	36599971	49	196.36900000000003	14.138568000000003	0.15	4	True	0	1	;
	36471402	36471404	15	58.685	4.22532	0.15	4	False	0	1	;
	36471402	6184181875	33	131.911	15.82932	0.15	4	False	0	1	;
	36471404	36479232	27	109.10199999999999	13.092239999999999	0.15	4	True	0	1	;
	36471404	21389566	14	55.858000000000004	4.021776	0.15	4	False	0	1	;
	36471404	36471402	15	58.685	4.22532	0.15	4	False	0	1	;
	361068	1513501834	5	19.63	1.41336	0.15	4	True	0	1	;
	361068	25554712	9	35.588	2.562336	0.15	4	False	0	1	;
	361068	25554696	52	208.66	15.02352	0.15	4	True	0	1	;
	94143086	289568129	46	182.776	21.933120000000002	0.15	4	True	0	1	;
	94143086	94143087	11	45.94	2.0673	0.15	4	True	0	1	;
	94143087	94143088	16	64.236	2.89062	0.15	4	True	0	1	;
	393871984	94151489	18	70.452	8.454239999999999	0.15	4	True	0	1	;
	393871984	393872110	22	87.62299999999999	10.514759999999999	0.15	4	True	0	1	;
	353763952	281675747	30	121.888	8.775936000000002	0.15	4	True	0	1	;
	94143088	243635109	21	82.463	3.710835	0.15	4	True	0	1	;
	94143088	94143090	44	175.045	21.0054	0.15	4	True	0	1	;
	94143090	175016228	15	61.027	4.393944	0.15	4	True	0	1	;
	21660275	21660278	34	135.141	6.081345	0.15	4	False	0	1	;