<NUMBER OF ZONES> 23219 
<NUMBER OF NODES> 23219 
<FIRST THRU NODE> 1 
<NUMBER OF LINKS> 44612 
<END OF METADATA> 

~	Init node	Term node	Capacity	Length	Free Flow Time	B	Power	Speed limit	Toll	Type	;
	1820000257	1865254946	5	14.248	0.85488	0.15	4	60.0	0	1	;
	1820000257	4662056865	8	27.282	1.63692	0.15	4	60.0	0	1	;
	3874553858	6995781882	7	20.74	1.8666	0.15	4	40.0	0	1	;
	3874553858	3874553861	5	15.191	1.3671900000000001	0.15	4	40.0	0	1	;
	1820000259	245190289	5	13.573	0.8143800000000001	0.15	4	60.0	0	1	;
	1820000259	395227158	85	252.745	15.1647	0.15	4	60.0	0	1	;
	3874553857	3874570125	10	27.372	2.46348	0.15	4	40.0	0	1	;
	3874553857	6995781882	10	26.937	2.42433	0.15	4	40.0	0	1	;
	3874553857	3874570129	30	81.298	7.31682	0.15	4	40.0	0	1	;
	2083586053	2661055924	86	220.437	15.871464000000001	0.15	4	50.0	0	1	;
	889323526	5014445623	4	8.264	0.595008	0.15	4	50.0	0	1	;
	889323526	1412282686	24	59.56	4.28832	0.15	4	50.0	0	1	;
	3874553861	3876261560	8	26.622	2.3959799999999998	0.15	4	40.0	0	1	;
	244908034	375751933	6	14.157	1.019304	0.15	4	50.0	0	1	;
	237568006	4749270945	4	10.74	0.5523428571428571	0.15	4	70.0	0	1	;
	237568006	4749361891	10	27.3	1.9656	0.15	4	50.0	0	1	;
	2083586060	6808383834	160	335.149	17.236234285714286	0.15	4	70.0	0	1	;
	1820000270	6281637336	5	13.6	0.9792	0.15	4	50.0	0	1	;
	1820000270	6281637337	4	10.926	0.6555599999999999	0.15	4	60.0	0	1	;
	4604559376	247037912	130	395.87100000000004	28.502712000000002	0.15	4	50.0	0	1	;
	4604559376	4724385986	33	100.376	7.227072000000001	0.15	4	50.0	0	1	;
	4604559376	247037885	28	78.092	5.622624	0.15	4	50.0	0	1	;
	889323538	2684854392	23	82.06	5.90832	0.15	4	50.0	0	1	;
	889323538	5319635678	29	96.512	8.68608	0.15	4	40.0	0	1	;
	889323538	885999274	24	67.465	6.07185	0.15	4	40.0	0	1	;
	535167001	535167020	295	105.53999999999999	7.59888	0.15	4	50.0	0	1	;
	535167001	1360143410	659	128.061	9.220392	0.15	4	50.0	0	1	;
	6383009820	986602644	1507	1362.6000000000001	70.07657142857144	0.15	4	70.0	0	1	;
	244908061	4600583839	4	10.177	0.6106199999999999	0.15	4	60.0	0	1	;
	244908061	244911902	336	845.1250000000001	60.84900000000001	0.15	4	50.0	0	1	;
	4006805534	230928079	56	171.816	12.370752	0.15	4	50.0	0	1	;
	4006805535	4006805539	526	89.451	6.440472	0.15	4	50.0	0	1	;
	4006805535	230928801	302	71.307	5.134104000000001	0.15	4	50.0	0	1	;
	244908064	4714239753	12	28.246	1.6947599999999998	0.15	4	60.0	0	1	;
	244908064	4714239749	16	31.061	2.236392	0.15	4	50.0	0	1	;
	3731816477	885593725	28	78.868	4.056068571428571	0.15	4	70.0	0	1	;
	3731816477	3731816479	43	94.695	6.81804	0.15	4	50.0	0	1	;
	3731816479	3207286306	151	308.0919999999999	27.728279999999994	0.15	4	40.0	0	1	;
	4006805539	5187155475	624	292.169	21.036167999999996	0.15	4	50.0	0	1	;
	1820000293	1820000215	5	11.824	0.851328	0.15	4	50.0	0	1	;
	1820000293	4602998322	76	253.7	15.222	0.15	4	60.0	0	1	;
	3731816485	237493289	49	146.586	7.538708571428573	0.15	4	70.0	0	1	;
	4006805546	1785012459	314	156.418	11.262096000000001	0.15	4	50.0	0	1	;
	4006805547	4006805551	49	98.489	7.091208000000001	0.15	4	50.0	0	1	;
	4006805547	230865529	32	70.608	5.083776	0.15	4	50.0	0	1	;
	535167020	535163842	43	113.782	8.192304	0.15	4	50.0	0	1	;
	1820000300	1820000202	5	14.361	0.8616600000000001	0.15	4	60.0	0	1	;
	1820000300	4668467800	45	153.05999999999997	9.183599999999998	0.15	4	60.0	0	1	;
	244908077	4600582772	5	12.723	0.7633800000000001	0.15	4	60.0	0	1	;
	244908077	5179023093	10	28.556	2.056032	0.15	4	50.0	0	1	;
	1820000303	243677138	6	18.896	1.13376	0.15	4	60.0	0	1	;
	1820000303	243678653	107	301.59900000000005	18.095940000000002	0.15	4	60.0	0	1	;
	4006805552	4006805556	29	60.268	4.339296	0.15	4	50.0	0	1	;
	4006805552	230851038	26	44.497	3.203784	0.15	4	50.0	0	1	;
	4006805551	4604821797	137	365.9410000000001	26.347752000000007	0.15	4	50.0	0	1	;
	5233639475	4723344715	4	12.607	0.907704	0.15	4	50.0	0	1	;
	5233639475	3756989284	42	93.86	6.75792	0.15	4	50.0	0	1	;
	4006805556	633176625	105	235.481	16.954632	0.15	4	50.0	0	1	;
	4006805557	4006805563	45	90.343	6.504696	0.15	4	50.0	0	1	;
	4006805557	230877776	41	74.313	5.350536	0.15	4	50.0	0	1	;
	4006805563	4604079969	633	279.578	20.129616	0.15	4	50.0	0	1	;
	4006805567	5927893157	95	196.42899999999997	14.142887999999997	0.15	4	50.0	0	1	;
	6664945727	6664945734	38	74.35	5.3532	0.15	4	50.0	0	1	;
	6664945727	6304394022	108	214.35600000000002	15.433632000000001	0.15	4	50.0	0	1	;
	6664945734	6304394029	89	176.194	12.685967999999999	0.15	4	50.0	0	1	;
	6664945734	6664945727	38	74.896	5.392512	0.15	4	50.0	0	1	;
	4006805577	4006805582	14	31.333	2.255976	0.15	4	50.0	0	1	;
	4006805577	4006805579	34	70.751	5.094072	0.15	4	50.0	0	1	;
	4006805577	4006805580	82	159.358	11.473776	0.15	4	50.0	0	1	;
	4006805578	5240155864	6	20.521	1.4775120000000002	0.15	4	50.0	0	1	;
	4006805578	6787309283	65	173.263	12.474936000000001	0.15	4	50.0	0	1	;
	4006805578	4006805579	101	219.842	15.828624000000001	0.15	4	50.0	0	1	;
	373096523	369175567	6	16.394	1.1803679999999999	0.15	4	50.0	0	1	;
	373096523	5686387591	10	30.195	1.8117	0.15	4	60.0	0	1	;
	4006805579	4006805580	59	105.475	7.5942	0.15	4	50.0	0	1	;
	4006805579	4006805578	101	219.842	15.828624000000001	0.15	4	50.0	0	1	;
	4006805579	4006805577	34	70.751	5.094072	0.15	4	50.0	0	1	;
	4006805580	7017189005	10	16.246	1.1697119999999999	0.15	4	50.0	0	1	;
	4006805580	4006805579	59	105.475	7.5942	0.15	4	50.0	0	1	;
	4006805580	4006805577	82	159.358	11.473776	0.15	4	50.0	0	1	;
	4006805582	4006805577	14	31.333	2.255976	0.15	4	50.0	0	1	;
	373096527	2274874105	12	34.565	2.4886799999999996	0.15	4	50.0	0	1	;
	373096527	373096523	7	21.909	1.3145399999999998	0.15	4	60.0	0	1	;
	231866450	231863458	7	12.868	1.15812	0.15	4	40.0	0	1	;
	231866450	231866033	135	380.40400000000005	22.824240000000003	0.15	4	60.0	0	1	;
	373096533	411102684	3	11.633	0.6979799999999999	0.15	4	60.0	0	1	;
	373096533	2274876548	16	37.766	3.39894	0.15	4	40.0	0	1	;
	4006805595	4712377240	26	73.58	5.29776	0.15	4	50.0	0	1	;
	4006805595	243674399	42	142.13000000000002	10.233360000000001	0.15	4	50.0	0	1	;
	4006805595	6229012234	33	91.132	6.561504	0.15	4	50.0	0	1	;
	6040846429	6040846430	17	55.378	3.9872159999999996	0.15	4	50.0	0	1	;
	6040846430	366226200	6	11.856	0.853632	0.15	4	50.0	0	1	;
	6040846430	6040846429	17	55.378	3.9872159999999996	0.15	4	50.0	0	1	;
	6040846430	6393172215	39	133.157	9.587304	0.15	4	50.0	0	1	;
	5965348960	5965348961	3	7.123	0.512856	0.15	4	50.0	0	1	;
	5965348960	4592960118	36	104.257	7.5065040000000005	0.15	4	50.0	0	1	;
	5965348961	5965348960	3	7.123	0.512856	0.15	4	50.0	0	1	;
	5965348961	4592960047	146	323.34	29.1006	0.15	4	40.0	0	1	;
	409469026	309829943	32	64.366	4.634352	0.15	4	50.0	0	1	;
	409469026	409469027	85	61.556	4.4320319999999995	0.15	4	50.0	0	1	;
	409469026	409469054	19	37.153999999999996	2.6750879999999997	0.15	4	50.0	0	1	;
	409469027	309829942	24	58.046	4.179312	0.15	4	50.0	0	1	;
	409469027	409469053	18	47.128	3.393216	0.15	4	50.0	0	1	;
	409469027	409469026	85	61.556	4.4320319999999995	0.15	4	50.0	0	1	;
	1389166694	1389166400	158	82.625	5.949	0.15	4	50.0	0	1	;
	1389166694	1389166401	345	231.181	16.645032	0.15	4	50.0	0	1	;
	1389166694	1389167101	30	117.207	8.438903999999999	0.15	4	50.0	0	1	;
	244908137	4602946779	5	12.337	0.74022	0.15	4	60.0	0	1	;
	244908137	4714271496	17	35.676	2.5686720000000003	0.15	4	50.0	0	1	;
	385613932	366653047	1631	1391.466	62.61597	0.15	4	80.0	0	1	;
	7169441907	1363263429	47	8.934	0.6432479999999999	0.15	4	50.0	0	1	;
	7169441907	682933932	216	75.722	5.4519839999999995	0.15	4	50.0	0	1	;
	7169441907	6378015250	173	32.914	2.3698080000000004	0.15	4	50.0	0	1	;
	6224412788	4592819424	16	43.564	2.6138399999999997	0.15	4	60.0	0	1	;
	6224412788	6224412795	28	62.281000000000006	4.484232	0.15	4	50.0	0	1	;
	244908150	244908153	40	94.47200000000001	5.6683200000000005	0.15	4	60.0	0	1	;
	244908150	4714280988	15	26.102	1.879344	0.15	4	50.0	0	1	;
	244908153	1311433841	19	46.321	2.7792600000000003	0.15	4	60.0	0	1	;
	244908153	4602946731	30	61.107	4.399704	0.15	4	50.0	0	1	;
	6224412795	6241790664	40	107.82	6.4692	0.15	4	60.0	0	1	;
	409469053	409469027	18	47.128	3.393216	0.15	4	50.0	0	1	;
	409469054	409469026	19	37.153999999999996	2.6750879999999997	0.15	4	50.0	0	1	;
	409469055	409469059	33	103.179	7.428888000000001	0.15	4	50.0	0	1	;
	409469055	309823982	12	42.03	3.02616	0.15	4	50.0	0	1	;
	409469055	409469056	8	25.932	1.8671039999999999	0.15	4	50.0	0	1	;
	409469056	409469058	23	65.56	4.72032	0.15	4	50.0	0	1	;
	409469056	409469055	8	25.932	1.8671039999999999	0.15	4	50.0	0	1	;
	409469056	409469057	50	169.24200000000002	12.185424000000001	0.15	4	50.0	0	1	;
	409469057	409469060	25	78.605	5.65956	0.15	4	50.0	0	1	;
	409469057	309848181	198	102.899	7.408728000000001	0.15	4	50.0	0	1	;
	409469057	409469056	50	169.24200000000002	12.185424000000001	0.15	4	50.0	0	1	;
	409469058	409469056	23	65.56	4.72032	0.15	4	50.0	0	1	;
	409469059	409469055	33	103.179	7.428888000000001	0.15	4	50.0	0	1	;
	409469060	409469057	25	78.605	5.65956	0.15	4	50.0	0	1	;
	409469061	309848181	11	48.852	3.5173439999999996	0.15	4	50.0	0	1	;
	409469061	409469062	13	52.095	3.75084	0.15	4	50.0	0	1	;
	409469061	309829925	12	47.262	3.402864	0.15	4	50.0	0	1	;
	409469062	409469061	13	52.095	3.75084	0.15	4	50.0	0	1	;
	243990655	6979844291	13	31.249000000000002	2.249928	0.15	4	50.0	0	1	;
	243990655	239710686	17	51.086	3.06516	0.15	4	60.0	0	1	;
	1820000389	243686592	6	15.223	1.0960560000000001	0.15	4	50.0	0	1	;
	1820000389	395227148	47	165.119	9.90714	0.15	4	60.0	0	1	;
	4604821646	243230385	11	35.901	2.5848720000000003	0.15	4	50.0	0	1	;
	4604821646	243208121	282	972.0340000000001	69.98644800000001	0.15	4	50.0	0	1	;
	4604821647	243230385	10	31.883	2.295576	0.15	4	50.0	0	1	;
	4604821647	378641049	15	51.385	3.69972	0.15	4	50.0	0	1	;
	4604821647	4604821651	16	51.458	3.704976	0.15	4	50.0	0	1	;
	1868431505	4600486004	55	10.271	0.7395120000000002	0.15	4	50.0	0	1	;
	1868431505	2395975766	574	109.436	7.879392000000001	0.15	4	50.0	0	1	;
	4604821651	243230385	12	36.442	2.6238240000000004	0.15	4	50.0	0	1	;
	4604821651	243208125	84	306.55699999999996	22.072104	0.15	4	50.0	0	1	;
	4604821651	4604821646	17	53.214	3.8314079999999997	0.15	4	50.0	0	1	;
	249692307	243213817	40	81.33800000000001	5.856336000000001	0.15	4	50.0	0	1	;
	249692307	237296820	19	43.056	2.5833599999999994	0.15	4	60.0	0	1	;
	1868431509	4600485787	22	72.717	5.235624	0.15	4	50.0	0	1	;
	243990675	247184656	449	212.78199999999998	15.320303999999998	0.15	4	50.0	0	1	;
	243990675	6979844291	25	64.037	3.84222	0.15	4	60.0	0	1	;
	4604821659	239825047	18	41.171	2.964312	0.15	4	50.0	0	1	;
	4604821659	4604821664	14	33.725	2.4282	0.15	4	50.0	0	1	;
	4604821664	239825047	15	32.936	2.371392	0.15	4	50.0	0	1	;
	4604821664	7170811526	51	148.068	10.660896000000001	0.15	4	50.0	0	1	;
	1221460131	1218588052	515	482.4320000000001	19.29728	0.15	4	90.0	0	1	;
	4860870820	4724826057	20	39.109	2.815848	0.15	4	50.0	0	1	;
	4860870820	4860871321	27	53.598	3.859056	0.15	4	50.0	0	1	;
	243990693	239712267	12	18.71	1.6839	0.15	4	40.0	0	1	;
	243990693	243990702	234	615.2919999999999	36.917519999999996	0.15	4	60.0	0	1	;
	7077822629	7108062021	24	47.304	4.25736	0.15	4	40.0	0	1	;
	1221460139	1221460131	494	509.303	36.669816000000004	0.15	4	50.0	0	1	;
	249692332	4740128037	2	4.532	0.27192	0.15	4	60.0	0	1	;
	249692332	249804231	67	168.782	15.190380000000001	0.15	4	40.0	0	1	;
	1868431533	4715646866	3	10.519	0.757368	0.15	4	50.0	0	1	;
	1868431533	1868431548	92	314.626	22.653071999999998	0.15	4	50.0	0	1	;
	1868431533	5683722861	161	471.1759999999999	33.924671999999994	0.15	4	50.0	0	1	;
	243990702	1358272772	5	13.329	0.79974	0.15	4	60.0	0	1	;
	249692335	249799917	120	274.761	16.485660000000003	0.15	4	60.0	0	1	;
	249692335	249692332	97	233.43800000000002	14.00628	0.15	4	60.0	0	1	;
	249692336	249693002	19	38.303	2.29818	0.15	4	60.0	0	1	;
	373096623	2274880832	9	32.476	1.9485599999999998	0.15	4	60.0	0	1	;
	373096623	368898713	7	15.644	1.40796	0.15	4	40.0	0	1	;
	4604821682	3109336769	320	361.319	26.014968000000003	0.15	4	50.0	0	1	;
	249692339	4606287879	8	16.733	1.00398	0.15	4	60.0	0	1	;
	373096628	368899634	4	13.263	0.79578	0.15	4	60.0	0	1	;
	373096628	2274882386	8	28.841	1.73046	0.15	4	60.0	0	1	;
	249692343	1363293930	39	60.72200000000001	4.371984000000001	0.15	4	50.0	0	1	;
	249692343	249692345	103	233.46599999999995	14.007959999999997	0.15	4	60.0	0	1	;
	1221460152	1221460139	43	104.78999999999999	7.54488	0.15	4	50.0	0	1	;
	1221460152	568265844	106	100.855	5.186828571428571	0.15	4	70.0	0	1	;
	249692345	1548433183	44	101.374	6.082439999999999	0.15	4	60.0	0	1	;
	373096632	373096628	5	15.298	0.91788	0.15	4	60.0	0	1	;
	373096632	1167575172	17	49.596	2.9757599999999997	0.15	4	60.0	0	1	;
	1868431548	4602946764	4	9.73	0.70056	0.15	4	50.0	0	1	;
	1868431548	4602946746	220	528.9200000000001	38.082240000000006	0.15	4	50.0	0	1	;
	1868431548	1868431533	92	314.626	22.653071999999998	0.15	4	50.0	0	1	;
	373096643	368899633	6	14.305	1.02996	0.15	4	50.0	0	1	;
	373096643	4427352391	9	25.406	1.52436	0.15	4	60.0	0	1	;
	246612166	2507183389	27	96.48899999999999	5.789339999999999	0.15	4	60.0	0	1	;
	246612176	5686515371	3	11.194	0.67164	0.15	4	60.0	0	1	;
	246612176	2507312817	12	37.929	2.7308879999999998	0.15	4	50.0	0	1	;
	6038552787	6038552788	9	35.006	2.520432	0.15	4	50.0	0	1	;
	6038552788	6038552790	12	48.877	3.5191440000000003	0.15	4	50.0	0	1	;
	6038552788	6038552787	9	35.006	2.520432	0.15	4	50.0	0	1	;
	6038552788	5284985696	6	22.35	1.6092	0.15	4	50.0	0	1	;
	6038552789	6038552790	15	61.198	4.406256	0.15	4	50.0	0	1	;
	6038552790	6038552788	12	48.877	3.5191440000000003	0.15	4	50.0	0	1	;
	6038552790	6038552789	15	61.198	4.406256	0.15	4	50.0	0	1	;
	6038552790	4599006768	37	150.446	10.832112	0.15	4	50.0	0	1	;
	373096660	1167567948	5	14.869	0.89214	0.15	4	60.0	0	1	;
	373096660	1167544116	12	33.317	2.398824	0.15	4	50.0	0	1	;
	237568212	6819928000	3	6.857	0.3526457142857143	0.15	4	70.0	0	1	;
	237568212	5179030750	12	24.997999999999998	1.7998559999999997	0.15	4	50.0	0	1	;
	246612186	1357108540	10	30.104	1.5482057142857142	0.15	4	70.0	0	1	;
	246612186	246579458	6	17.508	0.9004114285714285	0.15	4	70.0	0	1	;
	246612189	246612191	12	33.13	2.3853600000000004	0.15	4	50.0	0	1	;
	246612189	246579461	17	57.593999999999994	2.961977142857142	0.15	4	70.0	0	1	;
	246612191	246579461	20	57.396	4.132512	0.15	4	50.0	0	1	;
	246612191	246612198	28	74.27	5.34744	0.15	4	50.0	0	1	;
	246612198	1298433961	27	68.714	4.947408	0.15	4	50.0	0	1	;
	246612198	1298433951	91	197.412	14.213664000000001	0.15	4	50.0	0	1	;
	246612198	246612191	28	74.27	5.34744	0.15	4	50.0	0	1	;
	4598923499	247428436	33	106.492	5.476731428571429	0.15	4	70.0	0	1	;
	4598923499	1807062703	119	349.986	25.198991999999997	0.15	4	50.0	0	1	;
	4598923500	4598923511	18	59.756	4.3024320000000005	0.15	4	50.0	0	1	;
	4598923500	4598923506	27	87.082	5.224919999999999	0.15	4	60.0	0	1	;
	4598923506	247183797	23	75.501	4.530060000000001	0.15	4	60.0	0	1	;
	4745265395	310638748	3	8.531	0.614232	0.15	4	50.0	0	1	;
	4745265395	4591621005	20	64.364	4.634208	0.15	4	50.0	0	1	;
	4745265396	4591621005	3	6.702	0.48254400000000003	0.15	4	50.0	0	1	;
	4745265396	310638748	19	64.679	4.6568879999999995	0.15	4	50.0	0	1	;
	4003660021	4003656697	30	58.278999999999996	4.196088	0.15	4	50.0	0	1	;
	4745265397	310638750	3	7.212	0.5192640000000001	0.15	4	50.0	0	1	;
	4745265397	4591621008	43	118.414	8.525808	0.15	4	50.0	0	1	;
	4598923511	4598923506	22	59.667	4.296024	0.15	4	50.0	0	1	;
	4598923511	247048639	744	486.881	35.055431999999996	0.15	4	50.0	0	1	;
	4598923512	1122800550	14	43.227000000000004	2.59362	0.15	4	60.0	0	1	;
	4598923519	4598923512	170	87.366	6.2903519999999995	0.15	4	50.0	0	1	;
	4598923519	881591154	154	52.314	3.13884	0.15	4	60.0	0	1	;
	4598923520	4598923527	291	82.548	5.943455999999999	0.15	4	50.0	0	1	;
	4598923520	247183830	120	43.569	3.1369680000000004	0.15	4	50.0	0	1	;
	5270601985	4459074813	25	72.608	5.227776	0.15	4	50.0	0	1	;
	4598923527	5231510053	142	118.30000000000001	7.098000000000001	0.15	4	60.0	0	1	;
	4598923528	6174044562	847	506.31499999999994	36.454679999999996	0.15	4	50.0	0	1	;
	1268318475	1268318504	45	93.447	6.728184000000001	0.15	4	50.0	0	1	;
	1268318475	5173827473	26	37.667	2.7120240000000004	0.15	4	50.0	0	1	;
	1868431628	5189297949	4	12.683	0.7609800000000001	0.15	4	60.0	0	1	;
	1868431628	1868431634	6	15.352	1.105344	0.15	4	50.0	0	1	;
	4598923535	4598923528	24	71.894	5.176368	0.15	4	50.0	0	1	;
	4598923535	243218925	14	49.688	2.9812800000000004	0.15	4	60.0	0	1	;
	4598923536	5228826988	103	373.544	22.41264	0.15	4	60.0	0	1	;
	5270601999	5270602004	60	205.783	14.816375999999998	0.15	4	50.0	0	1	;
	5270601999	6497953525	97	332.459	23.937047999999997	0.15	4	50.0	0	1	;
	1868431634	1868431628	17	45.38	3.26736	0.15	4	50.0	0	1	;
	246612242	2507343631	4	8.431	0.607032	0.15	4	50.0	0	1	;
	246612242	246612279	62	179.99800000000002	12.959856	0.15	4	50.0	0	1	;
	5270602004	5270601999	60	205.78300000000002	14.816376000000002	0.15	4	50.0	0	1	;
	5270602004	5921941614	30	102.87500000000001	7.407000000000001	0.15	4	50.0	0	1	;
	4598923541	4598923536	19	54.783	3.9443760000000005	0.15	4	50.0	0	1	;
	4598923541	888319442	14	45.204	2.71224	0.15	4	60.0	0	1	;
	4598923542	1548409741	53	146.532	10.550304	0.15	4	50.0	0	1	;
	4598923549	4598923542	19	47.144	3.394368	0.15	4	50.0	0	1	;
	4598923549	1548409656	11	30.956000000000003	1.8573600000000001	0.15	4	60.0	0	1	;
	4604821790	4604821682	27	71.508	5.148575999999999	0.15	4	50.0	0	1	;
	4604821790	230865640	17	52.634	3.7896479999999997	0.15	4	50.0	0	1	;
	4604821790	243674568	33	122.191	8.797752000000001	0.15	4	50.0	0	1	;
	4598923550	1731362515	117	313.35	18.801	0.15	4	60.0	0	1	;
	243990817	5014445995	4	14.81	0.8886	0.15	4	60.0	0	1	;
	243990817	1201732571	272	308.548	22.215456	0.15	4	50.0	0	1	;
	1629356322	248420729	57	144.497	10.403784000000002	0.15	4	50.0	0	1	;
	4604821797	4604821790	19	78.226	5.6322719999999995	0.15	4	50.0	0	1	;
	4604821797	230865640	19	51.259	3.690648	0.15	4	50.0	0	1	;
	4604821798	4006805557	134	356.35599999999994	25.657631999999996	0.15	4	50.0	0	1	;
	4598923557	4598923550	27	66.815	4.81068	0.15	4	50.0	0	1	;
	4598923557	1548409698	14	42.863	3.0861359999999998	0.15	4	50.0	0	1	;
	4598923558	1548409738	19	63.958	4.604976	0.15	4	50.0	0	1	;
	4598923558	172468305	12	40.809	2.44854	0.15	4	60.0	0	1	;
	1268318504	884210111	67	194.60599999999994	14.011631999999995	0.15	4	50.0	0	1	;
	1268318504	1268318505	66	174.953	12.596616000000001	0.15	4	50.0	0	1	;
	6213206314	5940017885	111	341.09799999999996	20.46588	0.15	4	60.0	0	1	;
	4598923563	247046885	250	702.776	42.16656	0.15	4	60.0	0	1	;
	1268318505	4740228899	58	147.04299999999998	10.587095999999999	0.15	4	50.0	0	1	;
	1268318505	237397050	95	263.584	18.978048	0.15	4	50.0	0	1	;
	1268318505	1268318504	66	174.95300000000003	12.596616000000003	0.15	4	50.0	0	1	;
	4604821805	4604821798	22	62.726	4.516272	0.15	4	50.0	0	1	;
	4604821805	243208135	10	33.729	2.4284879999999998	0.15	4	50.0	0	1	;
	4604821805	243208134	17	52.277	3.7639440000000004	0.15	4	50.0	0	1	;
	231866671	231864537	6	13.954	1.004688	0.15	4	50.0	0	1	;
	231866671	4599023561	79	268.218	16.09308	0.15	4	60.0	0	1	;
	231866671	4593402940	160	438.00999999999993	31.536719999999995	0.15	4	50.0	0	1	;
	4598923567	4598923563	22	60.594	4.362768	0.15	4	50.0	0	1	;
	4598923567	883492138	15	41.415	2.98188	0.15	4	50.0	0	1	;
	1268318511	884210111	33	94.876	6.831072000000001	0.15	4	50.0	0	1	;
	1268318511	1268318475	74	161.14000000000001	11.60208	0.15	4	50.0	0	1	;
	1268318511	881802508	111	337.717	24.315624	0.15	4	50.0	0	1	;
	4604821811	4604821805	22	58.342	4.2006239999999995	0.15	4	50.0	0	1	;
	4604821811	243208135	18	46.477999999999994	3.3464159999999996	0.15	4	50.0	0	1	;
	3979870516	229576035	4	11.238	0.809136	0.15	4	50.0	0	1	;
	246612279	2516024457	3	7.078	0.509616	0.15	4	50.0	0	1	;
	246612279	2507343621	47	135.857	9.781704	0.15	4	50.0	0	1	;
	246612279	3151978664	152	395.742	28.493423999999997	0.15	4	50.0	0	1	;
	4005822812	4005822813	21	78.008	5.616575999999999	0.15	4	50.0	0	1	;
	4005822812	6065390760	17	62.705	4.51476	0.15	4	50.0	0	1	;
	4005822812	5233705880	10	33.917	2.4420240000000004	0.15	4	50.0	0	1	;
	4005822812	6877785568	25	49.914	3.5938079999999997	0.15	4	50.0	0	1	;
	4005822813	4005822812	21	78.008	5.616575999999999	0.15	4	50.0	0	1	;
	369164641	3063313410	11	32.578	1.9546800000000002	0.15	4	60.0	0	1	;
	369164641	369164647	4	13.039	0.78234	0.15	4	60.0	0	1	;
	369164647	242950993	4	11.802	0.70812	0.15	4	60.0	0	1	;
	369164647	3063312998	10	30.297	1.81782	0.15	4	60.0	0	1	;
	4592959848	1803882343	64	129.36200000000002	9.314064000000002	0.15	4	50.0	0	1	;
	4592959848	4592960087	32	60.92400000000001	4.386528	0.15	4	50.0	0	1	;
	4598858090	245242831	57	148.41099999999997	8.904659999999998	0.15	4	60.0	0	1	;
	4644995440	206089794	5	11.879	0.71274	0.15	4	60.0	0	1	;
	4644995440	1628817102	149	337.60299999999995	24.307415999999996	0.15	4	50.0	0	1	;
	4644995449	4644995440	6	12.183	0.8771760000000001	0.15	4	50.0	0	1	;
	4644995449	6138590514	237	685.182	41.11092	0.15	4	60.0	0	1	;
	4604821890	1748996467	13	43.482	2.6089200000000003	0.15	4	60.0	0	1	;
	4604821890	1167567994	22	63.94200000000001	4.603824	0.15	4	50.0	0	1	;
	4604821891	4430972572	148	427.54400000000004	25.65264	0.15	4	60.0	0	1	;
	213057923	213057996	32	80.391	5.788152000000001	0.15	4	50.0	0	1	;
	213057923	213058667	38	88.06	5.2836	0.15	4	60.0	0	1	;
	4604821896	5218788701	37	139.313	8.35878	0.15	4	60.0	0	1	;
	4604821900	1167567993	15	37.307	2.6861040000000003	0.15	4	50.0	0	1	;
	4604821900	4604821896	22	57.91499999999999	4.169879999999999	0.15	4	50.0	0	1	;
	4604821901	4604820870	56	125.033	9.002376	0.15	4	50.0	0	1	;
	4736876943	4736876948	90	286.972	20.661984	0.15	4	50.0	0	1	;
	4736876944	4736876945	4	10.63	0.76536	0.15	4	50.0	0	1	;
	4736876944	244930861	51	235.345	16.94484	0.15	4	50.0	0	1	;
	4736876945	4736518739	5	11.452	0.8245439999999999	0.15	4	50.0	0	1	;
	4736876945	4736876943	10	35.472	2.5539840000000003	0.15	4	50.0	0	1	;
	4604821907	1167568001	12	38.07	2.2842	0.15	4	60.0	0	1	;
	4604821907	4604821901	18	48.111999999999995	3.4640639999999996	0.15	4	50.0	0	1	;
	231866772	231867442	6	16.237	0.97422	0.15	4	60.0	0	1	;
	231866772	243688480	18	53.899	3.23394	0.15	4	60.0	0	1	;
	4736876948	4602245957	16	36.675	2.6406	0.15	4	50.0	0	1	;
	4736876948	4736876949	14	32.138999999999996	2.3140079999999994	0.15	4	50.0	0	1	;
	4736876949	1788565898	7	13.658	0.9833759999999999	0.15	4	50.0	0	1	;
	4736876949	4602245957	11	29.075	1.7445	0.15	4	60.0	0	1	;
	4724949433	244317027	10	33.048	1.98288	0.15	4	60.0	0	1	;
	4724949433	4724949436	17	46.262	3.330864	0.15	4	50.0	0	1	;
	4724949436	244952481	256	123.213	8.871336	0.15	4	50.0	0	1	;
	4612227518	4738858933	51	208.36899999999997	12.502139999999999	0.15	4	60.0	0	1	;
	4612227519	2138556883	10	28.003	2.016216	0.15	4	50.0	0	1	;
	4612227519	4612227518	12	37.491	2.699352	0.15	4	50.0	0	1	;
	4612227519	243855578	55	188.197	13.550184	0.15	4	50.0	0	1	;
	4612227521	4612227519	11	33.806999999999995	2.4341039999999996	0.15	4	50.0	0	1	;
	4612227521	2138556883	6	20.643	1.23858	0.15	4	60.0	0	1	;
	4612227523	4612227526	9	37.012	2.664864	0.15	4	50.0	0	1	;
	4612227523	243854508	6	30.866999999999997	1.85202	0.15	4	60.0	0	1	;
	4612227524	4606931540	155	474.51300000000003	28.47078	0.15	4	60.0	0	1	;
	5146214853	6789455132	9	20.188	1.4535360000000002	0.15	4	50.0	0	1	;
	5146214853	6789455136	2	5.038	0.362736	0.15	4	50.0	0	1	;
	4612227526	4612227524	10	38.368	2.7624960000000005	0.15	4	50.0	0	1	;
	4612227526	243854508	6	24.796	1.7853119999999998	0.15	4	50.0	0	1	;
	4612227526	243855574	81	276.97900000000004	19.942488000000004	0.15	4	50.0	0	1	;
	5146214855	6656569771	57	13.178	0.79068	0.15	4	60.0	0	1	;
	5146214855	567845034	226	53.147	3.8265839999999995	0.15	4	50.0	0	1	;
	4612227527	4612227531	118	459.2489999999999	27.554939999999995	0.15	4	60.0	0	1	;
	5146214857	366908422	59	181.006	10.86036	0.15	4	60.0	0	1	;
	5146214859	567845034	31	77.077	5.549544	0.15	4	50.0	0	1	;
	5146214859	5218400369	23	63.449	3.80694	0.15	4	60.0	0	1	;
	213057996	206261554	103	209.13400000000001	15.057648	0.15	4	50.0	0	1	;
	4612227532	4612227539	123	380.751	22.845059999999997	0.15	4	60.0	0	1	;
	4612227531	4612227534	19	47.048	3.3874560000000002	0.15	4	50.0	0	1	;
	4612227531	243854434	13	39.861	2.3916599999999995	0.15	4	60.0	0	1	;
	4612227535	4602641130	229	674.017	40.44102	0.15	4	60.0	0	1	;
	4612227534	4612227532	13	32.857	2.365704	0.15	4	50.0	0	1	;
	4612227534	243854434	9	21.263	1.530936	0.15	4	50.0	0	1	;
	4612227534	243855578	90	266.776	19.207872000000002	0.15	4	50.0	0	1	;
	4612227537	243855451	9	30.323	2.183256	0.15	4	50.0	0	1	;
	4612227537	4612227535	15	42.621	3.068712	0.15	4	50.0	0	1	;
	4612227537	4612227571	30	109.56200000000001	7.888464000000002	0.15	4	50.0	0	1	;
	4474733007	4474733016	24	67.03800000000001	4.826736000000001	0.15	4	50.0	0	1	;
	4474733007	567854494	247	67.995	4.89564	0.15	4	50.0	0	1	;
	4612227539	243855451	8	25.056	1.50336	0.15	4	60.0	0	1	;
	4612227539	4612227537	12	35.147999999999996	2.5306559999999996	0.15	4	50.0	0	1	;
	369164759	242950993	15	39.443	2.36658	0.15	4	60.0	0	1	;
	369164759	3063308874	26	51.333	3.695976	0.15	4	50.0	0	1	;
	4612227543	1734061695	68	207.42	12.4452	0.15	4	60.0	0	1	;
	4612227545	243854461	12	31.743000000000002	2.285496	0.15	4	50.0	0	1	;
	4612227545	4612227543	15	40.214999999999996	2.89548	0.15	4	50.0	0	1	;
	4612227545	243855455	66	203.79399999999998	14.673167999999999	0.15	4	50.0	0	1	;
	4612227546	4606931530	17	46.497	3.3477840000000003	0.15	4	50.0	0	1	;
	4612227546	4606931529	11	28.555	2.05596	0.15	4	50.0	0	1	;
	4612227546	4612227550	58	213.495	15.37164	0.15	4	50.0	0	1	;
	5977080283	4459074625	21	67.689	4.873607999999999	0.15	4	50.0	0	1	;
	5977080283	5982355851	7	21.715	1.56348	0.15	4	50.0	0	1	;
	4474733016	4474733019	10	38.525	2.7738	0.15	4	50.0	0	1	;
	4474733016	567854494	102	54.138000000000005	3.8979360000000005	0.15	4	50.0	0	1	;
	4602135005	1145506404	1707	363.32800000000003	26.159616	0.15	4	50.0	0	1	;
	4612227549	4612227546	15	40.715	2.93148	0.15	4	50.0	0	1	;
	4612227549	4606931529	8	25.193	1.5115800000000001	0.15	4	60.0	0	1	;
	4612227550	243855452	7	27.04	1.94688	0.15	4	50.0	0	1	;
	4612227550	4612227546	58	213.49499999999998	15.371639999999998	0.15	4	50.0	0	1	;
	4474733019	7010271205	8	33.198	2.390256	0.15	4	50.0	0	1	;
	4474733019	4474733016	10	38.52499999999999	2.7737999999999996	0.15	4	50.0	0	1	;
	4612227553	243855452	10	28.466	2.5619400000000003	0.15	4	40.0	0	1	;
	4612227553	4612227550	8	34.870000000000005	2.5106400000000004	0.15	4	50.0	0	1	;
	4612227553	243855578	177	537.12	38.67264	0.15	4	50.0	0	1	;
	4612227556	4612227571	8	35.907	2.585304	0.15	4	50.0	0	1	;
	4612227556	243855452	6	27.723	1.996056	0.15	4	50.0	0	1	;
	4612227556	243855780	30	126.303	9.093816	0.15	4	50.0	0	1	;
	4474733028	7010271211	11	41.914	3.017808	0.15	4	50.0	0	1	;
	4612227558	243854450	11	32.873	2.366856	0.15	4	50.0	0	1	;
	4612227558	4612227527	14	42.707	3.074904	0.15	4	50.0	0	1	;
	4602135016	237154323	16	58.584	3.5150400000000004	0.15	4	60.0	0	1	;
	4602135016	4602135005	30	68.854	4.957488	0.15	4	50.0	0	1	;
	6191383019	603563375	2	6.486	0.46699199999999996	0.15	4	50.0	0	1	;
	6191383019	5838853141	36	111.32	8.01504	0.15	4	50.0	0	1	;
	368902639	373096632	5	13.794	0.82764	0.15	4	60.0	0	1	;
	368902639	2274882621	11	33.778	2.02668	0.15	4	60.0	0	1	;
	4612227571	243855452	7	26.145	1.88244	0.15	4	50.0	0	1	;
	4612227571	4612227537	30	109.56200000000001	7.888464000000002	0.15	4	50.0	0	1	;
	1389167099	1389166403	22	72.855	5.24556	0.15	4	50.0	0	1	;
	1389167099	1389167101	21	70.298	5.061456000000001	0.15	4	50.0	0	1	;
	1389167099	1389166376	31	114.57300000000001	8.249256	0.15	4	50.0	0	1	;
	1389167101	1389167099	21	70.298	5.061456000000001	0.15	4	50.0	0	1	;
	1389167101	1389166274	30	121.95100000000001	8.780472000000001	0.15	4	50.0	0	1	;
	1389167101	1389166694	30	117.207	8.438903999999999	0.15	4	50.0	0	1	;
	231866886	231864727	6	11.901	0.856872	0.15	4	50.0	0	1	;
	231866886	231866671	148	427.94599999999997	25.676759999999998	0.15	4	60.0	0	1	;
	231866886	5157966274	43	97.161	6.995591999999999	0.15	4	50.0	0	1	;
	440009224	232082528	26	75.037	5.402664000000001	0.15	4	50.0	0	1	;
	440009224	440009225	321	189.64	13.65408	0.15	4	50.0	0	1	;
	440009225	233602622	9	29.976	2.1582719999999997	0.15	4	50.0	0	1	;
	4592960015	4592960020	18	45.885	3.30372	0.15	4	50.0	0	1	;
	4592960015	4592960082	10	25.630000000000003	1.8453600000000003	0.15	4	50.0	0	1	;
	373096980	395048536	10	22.067	1.98603	0.15	4	40.0	0	1	;
	373096980	2274883199	8	24.623	1.772856	0.15	4	50.0	0	1	;
	4592960020	5643502199	173	499.421	25.68450857142857	0.15	4	70.0	0	1	;
	4592960021	4592960024	19	47.257	3.4025039999999995	0.15	4	50.0	0	1	;
	4592960021	243463507	11	36.153	1.8592971428571428	0.15	4	70.0	0	1	;
	4592960024	243463581	148	325.62	23.44464	0.15	4	50.0	0	1	;
	5173477915	243995743	7	13.53	0.97416	0.15	4	50.0	0	1	;
	5173477915	890216984	101	318.74899999999997	22.949928	0.15	4	50.0	0	1	;
	5173477916	243995743	4	11.077	0.66462	0.15	4	60.0	0	1	;
	5173477916	5173477915	7	16.029	1.154088	0.15	4	50.0	0	1	;
	373096988	2274881206	14	33.858	3.04722	0.15	4	40.0	0	1	;
	373096988	373096623	4	13.768	0.82608	0.15	4	60.0	0	1	;
	373096990	373096988	7	15.65	1.4085	0.15	4	40.0	0	1	;
	373096990	2274881112	8	28.304	1.69824	0.15	4	60.0	0	1	;
	4592960046	231863263	3	7.913	0.47478	0.15	4	60.0	0	1	;
	4592960047	4592960046	7	13.26	1.1934	0.15	4	40.0	0	1	;
	4592960047	231865648	99	358.117	21.487019999999998	0.15	4	60.0	0	1	;
	377553457	4045770123	103	302.912	21.809663999999998	0.15	4	50.0	0	1	;
	377553457	7180237491	30	120.46300000000001	7.227780000000001	0.15	4	60.0	0	1	;
	242614840	1846569537	15	62.678000000000004	5.64102	0.15	4	40.0	0	1	;
	4592960056	243463605	4	11.749	1.05741	0.15	4	40.0	0	1	;
	4592960056	5965348961	61	166.06199999999998	14.94558	0.15	4	40.0	0	1	;
	4592960056	4592960126	11	30.822000000000003	2.7739800000000003	0.15	4	40.0	0	1	;
	368902719	411679990	6	19.349	1.1609399999999999	0.15	4	60.0	0	1	;
	368902719	4427352178	14	39.326	2.831472	0.15	4	50.0	0	1	;
	4592960067	243463596	5	8.603	0.619416	0.15	4	50.0	0	1	;
	4592960067	4592960096	118	213.44799999999998	19.21032	0.15	4	40.0	0	1	;
	4592960068	4592960067	6	8.602	0.77418	0.15	4	40.0	0	1	;