<NUMBER OF ZONES> 23219 
<TOTAL OD FLOW> 
<END OF METADATA> 

Origin	1791609790	
		633167570 : 5;		4607458642 : 2;

Origin	387817366	
		387817365 : 0;		410926263 : 1;

Origin	388126914	
		239962436 : 3;

Origin	1398083485	
		633167570 : 4;		229314004 : 2;		250073111 : 1;		439988375 : 1;		437075840 : 2;

Origin	1829822450	
		378004629 : 1;		4607458642 : 2;		250073111 : 3;

Origin	243668564	
		4724907203 : 0;

Origin	1829822462	
		4598550003 : 0;

Origin	245566469	
		245566469 : 4;

Origin	229403149	
		4607458642 : 5;

Origin	239885744	
		250073111 : 0;		439988375 : 0;

Origin	239824768	
		437075840 : 4;

