<NUMBER OF ZONES> 10
<TOTAL OD FLOW> 460
<END OF METADATA> 

Origin	1820000257	
		5178982355 : 0;		5178982356 : 0;		5178982357 : 0;		2491875285 : 2;		1820000215 : 2;  
		5229051864 : 2;		1398079450 : 5;		2491875290 : 1;		1820000220 : 4;		1398079462 : 0;  
		1369047017 : 5;		4604559340 : 0;		4594335727 : 1;		244908016 : 2;		4604559345 : 2;  
		4594335729 : 0;		1398079475 : 2;		4594335734 : 4;		4604559352 : 0;		1820000251 : 4;  


Origin	3874553858	
		5178982355 : 2;		5178982356 : 2;		5178982357 : 4;		2491875285 : 4;		1820000215 : 1;  
		5229051864 : 0;		1398079450 : 5;		2491875290 : 2;		1820000220 : 0;		1398079462 : 5;  
		1369047017 : 1;		4604559340 : 5;		4594335727 : 2;		244908016 : 3;		4604559345 : 3;  
		4594335729 : 4;		1398079475 : 2;		4594335734 : 5;		4604559352 : 0;		1820000251 : 1;  


Origin	1820000259	
		5178982355 : 5;		5178982356 : 5;		5178982357 : 1;		2491875285 : 0;		1820000215 : 5;  
		5229051864 : 4;		1398079450 : 5;		2491875290 : 4;		1820000220 : 5;		1398079462 : 4;  
		1369047017 : 3;		4604559340 : 5;		4594335727 : 4;		244908016 : 2;		4604559345 : 3;  
		4594335729 : 3;		1398079475 : 5;		4594335734 : 0;		4604559352 : 5;		1820000251 : 1;  


Origin	3874553857	
		5178982355 : 3;		5178982356 : 5;		5178982357 : 5;		2491875285 : 2;		1820000215 : 4;  
		5229051864 : 1;		1398079450 : 0;		2491875290 : 1;		1820000220 : 2;		1398079462 : 0;  
		1369047017 : 1;		4604559340 : 1;		4594335727 : 3;		244908016 : 3;		4604559345 : 5;  
		4594335729 : 4;		1398079475 : 5;		4594335734 : 0;		4604559352 : 0;		1820000251 : 5;  


Origin	2083586053	
		5178982355 : 2;		5178982356 : 0;		5178982357 : 0;		2491875285 : 2;		1820000215 : 2;  
		5229051864 : 1;		1398079450 : 3;		2491875290 : 0;		1820000220 : 2;		1398079462 : 4;  
		1369047017 : 4;		4604559340 : 5;		4594335727 : 2;		244908016 : 1;		4604559345 : 4;  
		4594335729 : 3;		1398079475 : 4;		4594335734 : 2;		4604559352 : 4;		1820000251 : 1;  


Origin	889323526	
		5178982355 : 0;		5178982356 : 3;		5178982357 : 2;		2491875285 : 1;		1820000215 : 4;  
		5229051864 : 0;		1398079450 : 1;		2491875290 : 1;		1820000220 : 2;		1398079462 : 4;  
		1369047017 : 4;		4604559340 : 0;		4594335727 : 3;		244908016 : 1;		4604559345 : 3;  
		4594335729 : 2;		1398079475 : 2;		4594335734 : 1;		4604559352 : 4;		1820000251 : 3;  


Origin	3874553861	
		5178982355 : 3;		5178982356 : 0;		5178982357 : 3;		2491875285 : 3;		1820000215 : 3;  
		5229051864 : 1;		1398079450 : 4;		2491875290 : 0;		1820000220 : 5;		1398079462 : 4;  
		1369047017 : 5;		4604559340 : 5;		4594335727 : 1;		244908016 : 4;		4604559345 : 2;  
		4594335729 : 0;		1398079475 : 4;		4594335734 : 3;		4604559352 : 1;		1820000251 : 0;  


Origin	244908034	
		5178982355 : 2;		5178982356 : 1;		5178982357 : 4;		2491875285 : 4;		1820000215 : 1;  
		5229051864 : 4;		1398079450 : 5;		2491875290 : 2;		1820000220 : 0;		1398079462 : 1;  
		1369047017 : 5;		4604559340 : 0;		4594335727 : 3;		244908016 : 1;		4604559345 : 4;  
		4594335729 : 3;		1398079475 : 3;		4594335734 : 5;		4604559352 : 1;		1820000251 : 3;  


Origin	237568006	
		5178982355 : 1;		5178982356 : 3;		5178982357 : 0;		2491875285 : 0;		1820000215 : 1;  
		5229051864 : 0;		1398079450 : 2;		2491875290 : 0;		1820000220 : 3;		1398079462 : 3;  
		1369047017 : 0;		4604559340 : 1;		4594335727 : 1;		244908016 : 5;		4604559345 : 1;  
		4594335729 : 4;		1398079475 : 2;		4594335734 : 1;		4604559352 : 3;		1820000251 : 1;  


Origin	2083586060	
		5178982355 : 3;		5178982356 : 0;		5178982357 : 2;		2491875285 : 4;		1820000215 : 5;  
		5229051864 : 2;		1398079450 : 2;		2491875290 : 2;		1820000220 : 1;		1398079462 : 2;  
		1369047017 : 5;		4604559340 : 5;		4594335727 : 1;		244908016 : 2;		4604559345 : 3;  
		4594335729 : 0;		1398079475 : 3;		4594335734 : 5;		4604559352 : 1;		1820000251 : 4;  


