<NUMBER OF ZONES> 23219 
<TOTAL OD FLOW> 
<END OF METADATA> 

Origin	42427316	
		42453630 : 5;		42427824 : 5;		42453630 : 5;		42427824 : 5;

Origin	42429641	
		595729838 : 5;		42429094 : 5;		42454553 : 5;		42429094 : 5;		1764647101 : 5;		1764387321 : 5;

Origin	42431990	
		42431990 : 5;		42431990 : 5;

Origin	42445603	
		42442898 : 5;		42442898 : 5;

Origin	42437990	
		595729838 : 5;		42429094 : 5;		42454553 : 5;		42429094 : 5;		1764647101 : 5;		1764387321 : 5;

Origin	42442959	
		42435644 : 5;		42442935 : 5;		427850840 : 5;

Origin	371188756	
		595729838 : 5;		42429094 : 5;		42454553 : 5;		42429094 : 5;		1764647101 : 5;		1764387321 : 5;

Origin	42455963	
		205024444 : 5;

Origin	42431544	
		42435644 : 5;		427850840 : 5;		42435644 : 5;		427850840 : 5;

Origin	42449982	
		595729838 : 5;		42429094 : 5;		42454553 : 5;		42429094 : 5;		1764647101 : 5;		1764387321 : 5;		595729838 : 5;		42429094 : 5;		42454553 : 5;		42429094 : 5;		1764647101 : 5;		1764387321 : 5;

Origin	42456611	
		7132405548 : 5;		7132405548 : 5;

Origin	42443615	
		42445661 : 5;		42445661 : 5;

Origin	4878831008	
		42453630 : 5;		42427824 : 5;

Origin	278609863	
		595729838 : 5;

Origin	278608718	
		42429094 : 5;		42454553 : 5;		42429094 : 5;		1764647101 : 5;		1764387321 : 5;

Origin	42422270	
		42422270 : 5;

Origin	588455743	
		42436753 : 5;

Origin	596775951	
		42435644 : 5;		427850840 : 5;

Origin	42456049	
		595729838 : 5;		42429094 : 5;		42454553 : 5;		42429094 : 5;		1764647101 : 5;		1764387321 : 5;

Origin	42449963	
		588455743 : 5;		42445661 : 5;

Origin	42429174	
		42444964 : 5;		205024444 : 5;		42450814 : 5;		42430664 : 5;

Origin	42425780	
		42425780 : 5;		42425780 : 5;		42425780 : 5;

Origin	42427844	
		42427844 : 5;		42427844 : 5;

Origin	42429215	
		42429242 : 5;

Origin	42445511	
		42435632 : 5;

Origin	5798966629	
		595729838 : 5;		42429094 : 5;		42454553 : 5;		42429094 : 5;		1764647101 : 5;		1764387321 : 5;

Origin	42435456	
		7132405548 : 5;

Origin	42442838	
		42442898 : 5;

Origin	42428441	
		42427824 : 5;

Origin	42432308	
		42435632 : 5;

Origin	1918039876	
		595729838 : 5;		42429094 : 5;		42454553 : 5;		42429094 : 5;		1764647101 : 5;		1764387321 : 5;

Origin	5161246307	
		588455743 : 5;

Origin	42442836	
		42442898 : 5;

Origin	42442255	
		42427824 : 5;

