<NUMBER OF ZONES> 23219 
<NUMBER OF NODES> 23219 
<FIRST THRU NODE> 1 
<NUMBER OF LINKS> 44612 
<END OF METADATA> 

~	Init node	Term node	Capacity	Length	Free Flow Time	B	Power	Speed limit	Toll	Type	;
	1773060097	42437559	3	11.237	1.0056730888750776	0.15	4	40.225	0	1	;
	1773060097	1773060099	13	51.557	4.6141752641392175	0.15	4	40.225	0	1	;
	1773060099	588455742	4	14.383	1.2872293349906774	0.15	4	40.225	0	1	;
	1773060099	1773055865	14	55.908	5.003574891236793	0.15	4	40.225	0	1	;
	6177439749	42436531	19	77.419	6.928735860783094	0.15	4	40.225	0	1	;
	6177439749	42424672	54	216.579	19.38308017402113	0.15	4	40.225	0	1	;
	6177439750	6177439752	5	21.276	1.9041292728402737	0.15	4	40.225	0	1	;
	6177439750	42436514	20	79.657	7.12902921068987	0.15	4	40.225	0	1	;
	6177439752	596775946	20	78.603	7.034699813548788	0.15	4	40.225	0	1	;
	6177439752	42445953	37	146.21699999999998	13.085921690490988	0.15	4	40.225	0	1	;
	278609934	278642478	59	237.85000000000005	17.73896830329398	0.15	4	48.269999999999996	0	1	;
	278609934	278609863	14	57.547999999999995	5.150349285270354	0.15	4	40.225	0	1	;
	278609934	42422283	4	15.532	1.390060907395898	0.15	4	40.225	0	1	;
	278609934	3884569924	14	57.783	5.171380981976383	0.15	4	40.225	0	1	;
	6177439759	42447020	39	154.308	13.810038533250465	0.15	4	40.225	0	1	;
	6177439759	42436519	20	78.744	7.047318831572406	0.15	4	40.225	0	1	;
	42434589	374494595	19	77.97300000000001	6.978316967060287	0.15	4	40.225	0	1	;
	42434589	42434559	28	113.38300000000002	10.147390926041021	0.15	4	40.225	0	1	;
	1773076509	1773076778	20	78.674	7.0410540708514615	0.15	4	40.225	0	1	;
	1773076511	42429752	2	9.949	0.8904014916096955	0.15	4	40.225	0	1	;
	1773076511	42429754	25	101.37899999999999	9.073073958980732	0.15	4	40.225	0	1	;
	1773076511	1773076509	18	73.607	6.587574891236794	0.15	4	40.225	0	1	;
	1773076513	42432184	14	54.669	4.892688626476072	0.15	4	40.225	0	1	;
	1773076513	1773076511	11	45.998999999999995	4.116753262896209	0.15	4	40.225	0	1	;
	42451018	42439191	41	165.686	14.82833064014916	0.15	4	40.225	0	1	;
	246890579	42440532	4	17.077	1.5283331261653201	0.15	4	40.225	0	1	;
	246890579	246857084	20	79.14699999999999	5.0595613957205	0.15	4	56.315	0	1	;
	4149936235	42446622	25	101.541	9.087572405220634	0.15	4	40.225	0	1	;
	4149936235	4149936245	11	42.07300000000001	3.7653896830329403	0.15	4	40.225	0	1	;
	4149936245	42436178	2	6.791	0.6077712865133624	0.15	4	40.225	0	1	;
	4149936245	42436181	24	97.67200000000001	8.74131013051585	0.15	4	40.225	0	1	;
	42434722	42434589	87	349.947	31.319060285891858	0.15	4	40.225	0	1	;
	42451126	4950763055	67	267.293	23.92180981976383	0.15	4	40.225	0	1	;
	42451126	370912817	60	239.095	21.398185208203852	0.15	4	40.225	0	1	;
	42434780	42434722	23	91.28	8.169247980111871	0.15	4	40.225	0	1	;
	1506902240	42456888	2	9.629	0.8617625854568055	0.15	4	40.225	0	1	;
	42434800	42428220	27	109.846	9.830841516469858	0.15	4	40.225	0	1	;
	42434800	42429874	20	78.262	7.004181479179615	0.15	4	40.225	0	1	;
	42434807	42439842	19	77.986	6.979480422622748	0.15	4	40.225	0	1	;
	42434807	42434810	68	273.573	24.48384835301429	0.15	4	40.225	0	1	;
	246923513	42451375	6	23.169	1.481104501464974	0.15	4	56.315	0	1	;
	246923513	246858654	11	42.626999999999995	3.81497078931013	0.15	4	40.225	0	1	;
	42434810	42435633	20	78.145	6.993710379117465	0.15	4	40.225	0	1	;
	42434821	42430600	69	274.286	24.547659415786203	0.15	4	40.225	0	1	;
	42434821	42438674	19	76.982	6.889625854568055	0.15	4	40.225	0	1	;
	42434827	42438684	20	80.673	5.157112669803782	0.15	4	56.315	0	1	;
	42434832	42436971	12	49.518	4.431691733996271	0.15	4	40.225	0	1	;
	42434833	42434832	15	58.46	5.23197016780609	0.15	4	40.225	0	1	;
	42434833	42427750	57	227.397	20.35125419515227	0.15	4	40.225	0	1	;
	42434839	42438779	20	79.03200000000001	7.073093847110006	0.15	4	40.225	0	1	;
	42434839	42430126	20	80.84500000000001	7.235351149782475	0.15	4	40.225	0	1	;
	42434842	42434839	10	38.554	3.4504512119328776	0.15	4	40.225	0	1	;
	42434842	42434855	19	74.912	6.704367930391548	0.15	4	40.225	0	1	;
	4616536348	42423514	26	102.199	9.146461155997514	0.15	4	40.225	0	1	;
	4616536348	42423456	18	70.966	6.351214418893722	0.15	4	40.225	0	1	;
	4616536348	4139510037	18	70.451	7.881404599129894	0.15	4	32.18	0	1	;
	42434845	42434842	5	21.387	1.914063393412057	0.15	4	40.225	0	1	;
	42434845	42445702	19	75.08099999999999	6.719492852703542	0.15	4	40.225	0	1	;
	4616536351	42442286	3	12.413	1.1109210689869484	0.15	4	40.225	0	1	;
	4616536351	4616536352	18	73.256	6.5561615910503415	0.15	4	40.225	0	1	;
	4616536351	42436355	36	144.45	12.927781230577997	0.15	4	40.225	0	1	;
	4616536352	42436353	36	145.232	12.997767557489125	0.15	4	40.225	0	1	;
	4616536352	4616536348	17	68.708	6.149131137352392	0.15	4	40.225	0	1	;
	1632878885	42454214	26	105.755	9.464711000621504	0.15	4	40.225	0	1	;
	1632878885	42429918	77	306.519	27.432402734617774	0.15	4	40.225	0	1	;
	42434855	42445700	12	48.837999999999994	4.370834058421379	0.15	4	40.225	0	1	;
	42434855	42430122	12	46.17	4.132057178371659	0.15	4	40.225	0	1	;
	3551756586	42448329	16	65.908	5.898540708514606	0.15	4	40.225	0	1	;
	7480410410	42429641	34	135.07600000000002	12.08884027346178	0.15	4	40.225	0	1	;
	7480410410	42437990	17	69.414	6.212315724052206	0.15	4	40.225	0	1	;
	7480410410	42440798	20	78.76799999999999	7.04946674953387	0.15	4	40.225	0	1	;
	1773076778	1773078006	21	83.358	7.460256059664387	0.15	4	40.225	0	1	;
	1773076778	42437114	3	10.497	0.9394456183965195	0.15	4	40.225	0	1	;
	42434871	42436056	18	72.723	6.5084599129894345	0.15	4	40.225	0	1	;
	3574612293	246913431	19	77.02499999999999	6.893474207582348	0.15	4	40.225	0	1	;
	3574612293	588593059	17	69.42399999999999	6.213210689869483	0.15	4	40.225	0	1	;
	42434894	596775825	6	25.156	2.2513760099440643	0.15	4	40.225	0	1	;
	42434894	42436614	20	79.53500000000001	7.118110627719082	0.15	4	40.225	0	1	;
	42434895	42430479	20	80.732	7.225238036047235	0.15	4	40.225	0	1	;
	42434895	42434894	36	144.009	12.888313238036046	0.15	4	40.225	0	1	;
	42434898	42434895	39	154.26999999999998	13.806637663144807	0.15	4	40.225	0	1	;
	42434898	42436624	20	78.999	7.070140459912989	0.15	4	40.225	0	1	;
	42434904	42425127	20	79.639	7.127418272218769	0.15	4	40.225	0	1	;
	42434905	42434904	39	154.415	13.819614667495339	0.15	4	40.225	0	1	;
	42434905	42436610	20	80.098	7.168497203231821	0.15	4	40.225	0	1	;
	42434910	42434912	57	229.272	20.519060285891857	0.15	4	40.225	0	1	;
	42434910	42436630	20	80.421	7.197404599129896	0.15	4	40.225	0	1	;
	42434912	42430485	20	79.01400000000001	7.071482908638907	0.15	4	40.225	0	1	;
	42434919	42434921	14	55.602	4.976188937228091	0.15	4	40.225	0	1	;
	42434919	1773084410	16	63.939	5.722321939092604	0.15	4	40.225	0	1	;
	42434921	42434919	14	55.602	4.976188937228091	0.15	4	40.225	0	1	;
	1632878962	1632878994	63	252.188	22.56996395276569	0.15	4	40.225	0	1	;
	1632878962	1632878885	27	106.69800000000001	9.549106277190804	0.15	4	40.225	0	1	;
	42434935	589927943	14	54.184	4.849282784338098	0.15	4	40.225	0	1	;
	42434935	2140997997	18	72.801	6.515440646364201	0.15	4	40.225	0	1	;
	6166413694	42449689	26	103.903	9.298963331261655	0.15	4	40.225	0	1	;
	42434946	42437644	21	85.796	7.678448725916719	0.15	4	40.225	0	1	;
	42434946	42430308	77	309.705	27.717538844002487	0.15	4	40.225	0	1	;
	42451332	371188756	48	192.303	17.210461155997514	0.15	4	40.225	0	1	;
	42451332	42422530	20	81.49700000000001	7.293702921068989	0.15	4	40.225	0	1	;
	42434948	42434946	39	154.223	13.802431323803606	0.15	4	40.225	0	1	;
	42434948	42445908	20	78.44	7.02011187072716	0.15	4	40.225	0	1	;
	42434951	561042191	5	18.464	1.6524648850217525	0.15	4	40.225	0	1	;
	42434951	42458333	20	78.664	7.040159105034183	0.15	4	40.225	0	1	;
	42434954	42434951	37	147.173	13.171480422622748	0.15	4	40.225	0	1	;
	42434954	42445374	21	84.62	7.573200745804848	0.15	4	40.225	0	1	;
	246579597	246580736	12	47.716	3.0502992098020068	0.15	4	56.315	0	1	;
	246579597	42422258	14	56.556000000000004	5.061568676196395	0.15	4	40.225	0	1	;
	42434959	42434954	39	155.241	13.893538844002489	0.15	4	40.225	0	1	;
	42434959	42449932	20	78.411	7.017516469857053	0.15	4	40.225	0	1	;
	42434962	42434959	20	80.674	7.220047234307024	0.15	4	40.225	0	1	;
	42434962	42434965	34	134.968	12.079174642635177	0.15	4	40.225	0	1	;
	42434962	42445382	21	85.666	7.666814170292106	0.15	4	40.225	0	1	;
	1632878994	1632878962	63	252.188	22.56996395276569	0.15	4	40.225	0	1	;
	1632878994	42436756	15	59.30200000000001	5.307326289620883	0.15	4	40.225	0	1	;
	3630219668	42437074	34	137.279	12.286001243008078	0.15	4	40.225	0	1	;
	42434965	42434962	34	134.96800000000002	12.079174642635179	0.15	4	40.225	0	1	;
	42434965	5131026388	21	84.42399999999999	7.555659415786201	0.15	4	40.225	0	1	;
	42434969	42434965	16	62.047	6.941243008079552	0.15	4	32.18	0	1	;
	42434969	42454495	19	76.676	8.577799875699194	0.15	4	32.18	0	1	;
	42434974	42434969	42	166.083	18.579825978868865	0.15	4	32.18	0	1	;
	42434974	42455915	20	79.09800000000001	7.079000621504041	0.15	4	40.225	0	1	;
	42451370	42452994	19	74.32200000000002	6.651564947172158	0.15	4	40.225	0	1	;
	42451370	246911576	11	43.656000000000006	2.7907591227914414	0.15	4	56.315	0	1	;
	247120300	247123611	17	67.989	4.346273639350085	0.15	4	56.315	0	1	;
	247120300	61275380	17	68.249	6.108052206339341	0.15	4	40.225	0	1	;
	42434989	42434992	35	140.578	12.58125046612803	0.15	4	40.225	0	1	;
	42434989	42442722	19	76.742	6.868146674953388	0.15	4	40.225	0	1	;
	42434989	42439783	4	14.955	1.3384213797389684	0.15	4	40.225	0	1	;
	42451375	42451370	46	184.033	11.764517446506257	0.15	4	56.315	0	1	;
	42434992	42433043	34	135.052	12.08669235550031	0.15	4	40.225	0	1	;
	42434992	42455245	19	76.312	6.829663144810442	0.15	4	40.225	0	1	;
	42434992	42454622	20	80.761	7.227833436917339	0.15	4	40.225	0	1	;
	5799117240	42448558	4	15.14	1.3549782473586078	0.15	4	40.225	0	1	;
	5799117240	42454423	37	146.74099999999999	13.132817899316345	0.15	4	40.225	0	1	;
	5799117240	1919595926	20	80.34599999999999	7.19069235550031	0.15	4	40.225	0	1	;
	42435002	42449801	20	80.241	7.181295214418893	0.15	4	40.225	0	1	;
	486867405	42429645	4	16.92	1.5142821628340586	0.15	4	40.225	0	1	;
	486867405	3212472843	17	69.779	6.244981976382847	0.15	4	40.225	0	1	;
	6262915547	42429354	22	88.641	7.933066500932257	0.15	4	40.225	0	1	;
	6262915547	42440343	13	50.199	4.49263890615289	0.15	4	40.225	0	1	;
	247120348	42424218	19	74.721	6.687274083281542	0.15	4	40.225	0	1	;
	6262915548	42448583	24	97.318	8.709628340584214	0.15	4	40.225	0	1	;
	6262915548	42444424	19	77.91199999999999	6.97285767557489	0.15	4	40.225	0	1	;
	486867432	42429756	4	16.794	1.503005593536358	0.15	4	40.225	0	1	;
	486867432	486867405	19	77.503	6.936253573648228	0.15	4	40.225	0	1	;
	5145330172	42437830	31	122.457	10.959482908638906	0.15	4	40.225	0	1	;
	486867459	486867513	18	73.64999999999999	6.591423244251086	0.15	4	40.225	0	1	;
	486867459	42432102	25	99.43799999999999	8.899361093847109	0.15	4	40.225	0	1	;
	486867490	42429766	4	17.162	1.5359403356121815	0.15	4	40.225	0	1	;
	486867490	486867459	17	68.75800000000001	6.153605966438783	0.15	4	40.225	0	1	;
	246579753	373903786	69	277.35900000000004	17.73048743673977	0.15	4	56.315	0	1	;
	6885524021	6979088365	2	6.21	0.5557737725295214	0.15	4	40.225	0	1	;
	486867513	42429773	4	17.397	1.55697203231821	0.15	4	40.225	0	1	;
	486867513	486867534	18	71.69500000000001	6.416457426973276	0.15	4	40.225	0	1	;
	486867513	42432099	25	99.265	8.883878185208204	0.15	4	40.225	0	1	;
	6885524030	42433811	16	65.869	5.895050341827222	0.15	4	40.225	0	1	;
	6885524030	6885524021	58	231.31900000000002	20.70225978868863	0.15	4	40.225	0	1	;
	1763787328	42425780	2	8.44	0.7553511497824736	0.15	4	40.225	0	1	;
	1763787328	374475605	47	186.611	16.701046612802983	0.15	4	40.225	0	1	;
	486867534	42429782	4	17.529	1.5687855811062772	0.15	4	40.225	0	1	;
	486867534	486867548	19	76.61099999999999	6.856422622747047	0.15	4	40.225	0	1	;
	486867548	42432095	24	94.796	8.48391796146675	0.15	4	40.225	0	1	;
	486867548	7612925053	14	56.789	5.082421379738968	0.15	4	40.225	0	1	;
	42451564	3099326127	4	16.387	1.4665804847731512	0.15	4	40.225	0	1	;
	42451564	42453253	20	79.166	7.085086389061528	0.15	4	40.225	0	1	;
	370705004	4158740807	38	152.39999999999998	11.366065879428216	0.15	4	48.269999999999996	0	1	;
	370705004	2821304146	20	81.533	7.296924798011187	0.15	4	40.225	0	1	;
	42435197	765367023	10	38.471	3.4430229956494713	0.15	4	40.225	0	1	;
	42435197	42432218	76	303.009	27.118269732753266	0.15	4	40.225	0	1	;
	42435198	42439783	17	66.275	5.931385954008702	0.15	4	40.225	0	1	;
	42435198	42442717	18	73.86500000000001	6.610665009322562	0.15	4	40.225	0	1	;
	42435198	765367023	14	56.045	5.0158359229334994	0.15	4	40.225	0	1	;
	42435207	42453226	76	304.122	27.217879428216282	0.15	4	40.225	0	1	;
	42435207	42439485	20	79.684	7.131445618396519	0.15	4	40.225	0	1	;
	42451593	42432097	28	112.44300000000001	10.063264139216907	0.15	4	40.225	0	1	;
	42451593	42447428	19	77.422	6.929004350528278	0.15	4	40.225	0	1	;
	42451593	42452084	18	70.388	6.299485394655066	0.15	4	40.225	0	1	;
	42435211	42435207	39	155.627	13.928084524549412	0.15	4	40.225	0	1	;
	42435211	42443817	20	80.156	7.173688004972033	0.15	4	40.225	0	1	;
	42451604	42455039	18	72.477	6.486443753884401	0.15	4	40.225	0	1	;
	42435222	596776624	7	26.689	2.388574269732753	0.15	4	40.225	0	1	;
	42435222	42443818	20	80.544	7.208412678682411	0.15	4	40.225	0	1	;
	42435230	42439489	20	79.737	7.1361889372280904	0.15	4	40.225	0	1	;
	42435230	42435222	36	143.072	12.804454940957116	0.15	4	40.225	0	1	;
	42435231	42435230	39	154.417	13.819793660658792	0.15	4	40.225	0	1	;
	42435231	42443821	20	81.286	7.274819142324424	0.15	4	40.225	0	1	;
	42435234	42435231	54	216.169	19.346386575512742	0.15	4	40.225	0	1	;
	42435234	42439497	20	79.775	7.139589807333747	0.15	4	40.225	0	1	;
	42435237	42435234	57	228.344	20.43600745804848	0.15	4	40.225	0	1	;
	42435237	42443824	21	82.394	7.373981354878807	0.15	4	40.225	0	1	;
	42435240	371218803	48	190.634	17.061091361093844	0.15	4	40.225	0	1	;
	42435240	42443826	21	82.932	7.4221305158483535	0.15	4	40.225	0	1	;
	42435240	42435237	54	216.607	19.385586078309508	0.15	4	40.225	0	1	;
	42435240	42439506	20	79.924	7.152924798011187	0.15	4	40.225	0	1	;
	42435253	1061531447	47	186.527	16.69352889993785	0.15	4	40.225	0	1	;
	42435253	42435257	20	79.89099999999999	7.14997141081417	0.15	4	40.225	0	1	;
	42435253	5706568625	20	79.012	7.0713039154754505	0.15	4	40.225	0	1	;
	6882378422	42453586	132	528.3100000000001	47.281939092604105	0.15	4	40.225	0	1	;
	42435257	42435261	20	79.714	7.134130515848353	0.15	4	40.225	0	1	;
	42435257	42435253	20	79.89099999999999	7.14997141081417	0.15	4	40.225	0	1	;
	42435261	42435257	20	79.714	7.134130515848353	0.15	4	40.225	0	1	;
	42435261	247223720	34	134.882	12.071477936606588	0.15	4	40.225	0	1	;
	42435261	42435264	20	80.528	7.206980733374768	0.15	4	40.225	0	1	;
	246858431	42437396	7	26.044	2.3308489745183345	0.15	4	40.225	0	1	;
	246858431	42437401	29	116.506	10.426888750776879	0.15	4	40.225	0	1	;
	246858431	5815234915	4	14.072	0.8995684986238124	0.15	4	56.315	0	1	;
	42435264	3718672443	69	274.103	24.53128154133002	0.15	4	40.225	0	1	;
	42435264	42435261	20	80.528	7.206980733374768	0.15	4	40.225	0	1	;
	42435264	42424427	20	78.035	6.983865755127408	0.15	4	40.225	0	1	;
	42435265	42435266	20	79.835	7.144959602237415	0.15	4	40.225	0	1	;
	42435265	42424427	20	79.295	7.096631448104413	0.15	4	40.225	0	1	;
	42435266	42435265	20	79.835	7.144959602237415	0.15	4	40.225	0	1	;
	42435266	42443329	68	273.445	24.472392790553137	0.15	4	40.225	0	1	;
	42435266	42435269	20	80.133	7.171629583592293	0.15	4	40.225	0	1	;
	246858433	42422026	27	109.305	9.782423865755128	0.15	4	40.225	0	1	;
	246858433	246858431	37	147.787	9.447450945574005	0.15	4	56.315	0	1	;
	246858433	42422028	6	24.895000000000003	2.2280174021131143	0.15	4	40.225	0	1	;
	42451650	42433542	15	60.709	5.433247980111871	0.15	4	40.225	0	1	;
	42451650	42453691	15	60.228	5.390200124300808	0.15	4	40.225	0	1	;
	42435269	42435272	20	79.597	7.123659415786202	0.15	4	40.225	0	1	;
	42435269	42435266	20	80.133	7.171629583592293	0.15	4	40.225	0	1	;
	246858435	42429570	7	29.204	2.6136581727781234	0.15	4	40.225	0	1	;
	246858435	42429577	20	80.67099999999999	7.219778744561839	0.15	4	40.225	0	1	;
	246858435	373880031	42	168.732	10.786383734351416	0.15	4	56.315	0	1	;
	42435272	42435269	20	79.597	7.123659415786202	0.15	4	40.225	0	1	;
	42435272	42437384	68	273.35200000000003	24.464069608452455	0.15	4	40.225	0	1	;
	42435272	42435275	21	85.834	7.681849596022375	0.15	4	40.225	0	1	;
	42435275	42443336	68	273.167	24.447512740832813	0.15	4	40.225	0	1	;
	42435275	42432556	22	86.569	7.747629583592294	0.15	4	40.225	0	1	;
	42435275	42435272	21	85.834	7.681849596022375	0.15	4	40.225	0	1	;
	42451660	42432111	27	109.498	9.79969670602859	0.15	4	40.225	0	1	;
	42451660	42429641	55	220.818	19.762456183965195	0.15	4	40.225	0	1	;
	42451660	42429643	20	79.208	7.088845245494095	0.15	4	40.225	0	1	;
	42451660	42452067	17	66.837	5.981683032939714	0.15	4	40.225	0	1	;
	246858445	246858448	87	347.62300000000005	22.2221930213975	0.15	4	56.315	0	1	;
	246858448	42431626	7	27.806	2.488541951522685	0.15	4	40.225	0	1	;
	246858448	42431629	19	76.689	6.863403356121814	0.15	4	40.225	0	1	;
	246858448	246858449	21	83.248	5.321722454053094	0.15	4	56.315	0	1	;
	42451665	42443127	18	71.595	6.407507768800497	0.15	4	40.225	0	1	;
	246858449	42449613	7	26.988	2.4153337476693597	0.15	4	40.225	0	1	;
	246858449	42446825	26	104.728	9.372798011187072	0.15	4	40.225	0	1	;
	246858449	246858435	35	141.002	9.013712154843292	0.15	4	56.315	0	1	;
	42435283	42435295	20	79.545	7.119005593536358	0.15	4	40.225	0	1	;
	42435283	42432556	20	81.3	7.276072094468614	0.15	4	40.225	0	1	;
	42451674	42437686	19	77.066	6.897143567433189	0.15	4	40.225	0	1	;
	42451674	42428232	58	230.32000000000002	20.612852703542575	0.15	4	40.225	0	1	;
	42435295	42435301	20	81.313	7.277235550031075	0.15	4	40.225	0	1	;
	42435295	42435283	20	79.545	7.119005593536358	0.15	4	40.225	0	1	;
	42435295	42443344	68	273.29699999999997	24.459147296457424	0.15	4	40.225	0	1	;
	42435301	42435295	20	81.313	7.277235550031075	0.15	4	40.225	0	1	;
	42435301	42424225	21	85.71600000000001	7.671288999378497	0.15	4	40.225	0	1	;
	42435308	42421800	20	80.47	7.201789931634556	0.15	4	40.225	0	1	;
	42435308	42433564	20	80.753	7.227117464263517	0.15	4	40.225	0	1	;
	42435308	42437300	68	273.48999999999995	24.476420136730887	0.15	4	40.225	0	1	;
	588546798	588546882	15	59.55500000000001	5.3299689247980115	0.15	4	40.225	0	1	;
	588546798	42436202	43	171.64	15.36119328775637	0.15	4	40.225	0	1	;
	42451695	42446668	39	156.128	13.972922311995026	0.15	4	40.225	0	1	;
	42435316	4016646206	68	273.896	24.51275574891237	0.15	4	40.225	0	1	;
	42435316	42435317	20	81.517	7.295492852703543	0.15	4	40.225	0	1	;
	42435316	42431447	19	77.297	6.917817277812306	0.15	4	40.225	0	1	;
	42435317	42435319	20	79.372	7.103522684897452	0.15	4	40.225	0	1	;
	42435317	42435316	20	81.517	7.295492852703543	0.15	4	40.225	0	1	;
	42435319	42443366	69	276.503	24.74607333747669	0.15	4	40.225	0	1	;
	42435319	42435317	20	79.372	7.103522684897452	0.15	4	40.225	0	1	;
	42435319	42435323	20	80.432	7.1983890615289	0.15	4	40.225	0	1	;
	42435323	42435328	20	78.883	7.059758856432566	0.15	4	40.225	0	1	;
	42435323	42435319	20	80.432	7.1983890615289	0.15	4	40.225	0	1	;
	42435328	42443373	69	276.22200000000004	24.720924798011193	0.15	4	40.225	0	1	;
	42435328	42424439	21	85.357	7.639159726538223	0.15	4	40.225	0	1	;
	42435328	42435323	20	78.883	7.059758856432566	0.15	4	40.225	0	1	;
	42451712	42454391	37	148.981	13.333290242386575	0.15	4	40.225	0	1	;
	42435331	42447275	34	137.905	12.34202610316967	0.15	4	40.225	0	1	;
	42435331	42435333	20	80.104	7.169034182722188	0.15	4	40.225	0	1	;
	42435331	42425570	21	84.463	7.559149782473586	0.15	4	40.225	0	1	;
	42435333	42435335	20	80.046	7.1638433809819775	0.15	4	40.225	0	1	;
	42435333	42435331	20	80.104	7.169034182722188	0.15	4	40.225	0	1	;
	42435335	42447281	34	137.757	12.32878060907396	0.15	4	40.225	0	1	;
	42435335	42435336	20	79.786	7.1405742697327526	0.15	4	40.225	0	1	;
	42435335	42435333	20	80.046	7.1638433809819775	0.15	4	40.225	0	1	;
	42435336	42435337	20	80.051	7.164290863890616	0.15	4	40.225	0	1	;
	42435336	42435335	20	79.786	7.1405742697327526	0.15	4	40.225	0	1	;
	42435337	42435336	20	80.051	7.164290863890616	0.15	4	40.225	0	1	;
	42435337	42437916	34	137.6	12.314729645742696	0.15	4	40.225	0	1	;
	42435337	42421728	21	85.34100000000001	7.637727781230579	0.15	4	40.225	0	1	;
	373850887	60925716	70	281.512	25.19436171535115	0.15	4	40.225	0	1	;
	373850887	60925728	70	278.418	24.917459291485397	0.15	4	40.225	0	1	;
	5890982665	1763748995	5	18.637	1.6679477936606588	0.15	4	40.225	0	1	;
	5890982665	1763748995	9	18.637	1.6679477936606588	0.15	4	40.225	0	1	;
	5890982665	42440494	7	26.899	2.4073685518955874	0.15	4	40.225	0	1	;
	5890982665	42440494	13	26.899	2.4073685518955874	0.15	4	40.225	0	1	;
	42435341	42435343	20	79.683	7.131356121814793	0.15	4	40.225	0	1	;
	42435341	42432736	20	80.115	7.170018645121194	0.15	4	40.225	0	1	;
	42435343	42435341	20	79.683	7.131356121814793	0.15	4	40.225	0	1	;
	42435343	42447303	34	137.358	12.293071472964574	0.15	4	40.225	0	1	;
	42435343	42435346	12	49.625	4.441267868241144	0.15	4	40.225	0	1	;
	42435346	42435343	12	49.625	4.441267868241144	0.15	4	40.225	0	1	;
	42435346	4016646214	12	49.43899999999999	4.424621504039775	0.15	4	40.225	0	1	;
	42451736	42435415	20	79.456	7.1110403977625865	0.15	4	40.225	0	1	;
	42451736	42445644	20	79.086	7.077926662523306	0.15	4	40.225	0	1	;
	42435359	42443426	19	76.059	6.807020509633312	0.15	4	40.225	0	1	;
	42435359	5838916777	35	139.393	12.475197016780609	0.15	4	40.225	0	1	;
	42435359	42442569	68	270.433	24.20282908638906	0.15	4	40.225	0	1	;
	42435359	42431186	63	252.92100000000002	22.63556494717216	0.15	4	40.225	0	1	;
	42435360	42435362	21	83.801	7.499903045369796	0.15	4	40.225	0	1	;
	42435360	42431186	20	81.796	7.320462399005595	0.15	4	40.225	0	1	;
	42451744	42450641	7	28.389	2.540718458669981	0.15	4	40.225	0	1	;
	42451744	42438513	21	84.60799999999999	7.572126786824114	0.15	4	40.225	0	1	;
	42451744	42428020	57	227.347	20.34677936606588	0.15	4	40.225	0	1	;
	42435362	42435360	21	83.801	7.499903045369796	0.15	4	40.225	0	1	;
	42435362	1506445821	21	85.024	7.609357364822872	0.15	4	40.225	0	1	;
	373850916	589927991	21	84.188	7.534538222498446	0.15	4	40.225	0	1	;
	42451754	371206274	7	29.62	2.65088875077688	0.15	4	40.225	0	1	;
	42451754	42428024	57	227.069	12.701187072715971	0.15	4	64.36	0	1	;
	42451754	42439416	20	80.55	7.208949658172778	0.15	4	40.225	0	1	;
	42451754	42438513	20	81.93599999999999	7.3329919204474825	0.15	4	40.225	0	1	;
	5333189421	5333189422	3	12.246	1.095975139838409	0.15	4	40.225	0	1	;
	5333189421	589927903	21	82.337	7.368880049720324	0.15	4	40.225	0	1	;
	5333189422	5333189421	3	12.246	1.095975139838409	0.15	4	40.225	0	1	;
	5333189422	5333189424	9	34.816	3.1159129894344315	0.15	4	40.225	0	1	;
	1506591534	1332860731	21	84.465	7.5593287756370415	0.15	4	40.225	0	1	;
	1506591534	42428844	20	79.433	7.1089819763828475	0.15	4	40.225	0	1	;
	1506591534	1506599378	5	21.625999999999998	1.9354530764449966	0.15	4	40.225	0	1	;
	5333189424	5333189423	3	12.164	1.088636420136731	0.15	4	40.225	0	1	;
	5333189424	42425758	7	29.316	2.6236817899316343	0.15	4	40.225	0	1	;
	596788016	42439557	5	20.436	1.8289521441889374	0.15	4	40.225	0	1	;
	596788016	596776063	20	80.539	7.207965195773773	0.15	4	40.225	0	1	;
	1506591536	6223571521	18	72.24	6.465233064014916	0.15	4	40.225	0	1	;
	1506591536	470209122	21	84.067	7.5237091361093835	0.15	4	40.225	0	1	;
	1506591536	1504153604	5	19.464	1.7419614667495338	0.15	4	40.225	0	1	;
	5333189426	42425758	3	12.045	1.077986326911125	0.15	4	40.225	0	1	;
	5333189426	5333189423	7	28.214	2.5250565568676193	0.15	4	40.225	0	1	;
	42435380	3579432161	35	141.873	12.697148539465505	0.15	4	40.225	0	1	;
	42435380	3579432162	47	187.93100000000004	16.81918210068366	0.15	4	40.225	0	1	;
	42435380	3579432160	22	87.258	7.809292728402735	0.15	4	40.225	0	1	;
	5333189423	5333189424	3	12.164	1.088636420136731	0.15	4	40.225	0	1	;
	5333189423	5333189421	9	35.933	3.215880671224363	0.15	4	40.225	0	1	;
	42451766	42428034	57	227.076	20.32252579241765	0.15	4	40.225	0	1	;
	42451766	42429348	22	87.606	7.840437538844002	0.15	4	40.225	0	1	;
	42451766	42435522	20	80.089	7.167691733996271	0.15	4	40.225	0	1	;
	5333189427	5333189426	8	32.103	2.873108763206961	0.15	4	40.225	0	1	;
	5333189427	42424551	10	38.367999999999995	3.43380484773151	0.15	4	40.225	0	1	;
	5333189428	5333189427	6	23.345	2.089297700435053	0.15	4	40.225	0	1	;
	5333189428	42424551	11	43.458	3.8893424487259165	0.15	4	40.225	0	1	;
	42435387	42446772	76	305.51099999999997	27.34219018023617	0.15	4	40.225	0	1	;
	42435387	42437201	58	232.865	20.840621504039778	0.15	4	40.225	0	1	;
	42451773	42428039	56	223.827	20.03175139838409	0.15	4	40.225	0	1	;
	42451773	42445757	20	80.736	7.225596022374146	0.15	4	40.225	0	1	;
	42451773	42429348	21	84.65	7.575885643256681	0.15	4	40.225	0	1	;
	588546882	1772136810	3	12.013	1.075122436295836	0.15	4	40.225	0	1	;
	588546882	246923513	17	66.776	5.9762237414543184	0.15	4	40.225	0	1	;
	42435395	42447196	59	237.097	21.21937103791175	0.15	4	40.225	0	1	;
	42435395	7732243554	36	142.823	12.7821702921069	0.15	4	40.225	0	1	;
	42435396	42435395	39	154.607	13.83679801118707	0.15	4	40.225	0	1	;
	42435396	42450071	21	83.423	7.466073337476693	0.15	4	40.225	0	1	;
	42435400	4207962275	57	228.64100000000002	20.46258794282163	0.15	4	40.225	0	1	;
	42435400	42456115	22	87.304	7.813409571162214	0.15	4	40.225	0	1	;
	42435403	42435400	55	218.213	19.529317588564325	0.15	4	40.225	0	1	;
	42435403	42445430	19	77.819	6.964534493474208	0.15	4	40.225	0	1	;
	42435403	42448278	21	85.95200000000001	7.692410192666254	0.15	4	40.225	0	1	;
	42451787	387184869	19	77.20700000000001	6.909762585456805	0.15	4	40.225	0	1	;
	42451787	1692450029	58	232.571	20.814309509011807	0.15	4	40.225	0	1	;
	588546891	42428345	2	6.599	0.5905879428216284	0.15	4	40.225	0	1	;
	588546891	42444479	26	103.96900000000001	9.304870105655688	0.15	4	40.225	0	1	;
	5550244687	42442977	17	67.792	6.067152268489745	0.15	4	40.225	0	1	;
	5550244688	5550244689	3	12.96	1.1598756991920447	0.15	4	40.225	0	1	;
	5550244688	5550244687	9	36.409	3.258481044126787	0.15	4	40.225	0	1	;
	5550244689	5550244688	3	12.96	1.1598756991920447	0.15	4	40.225	0	1	;
	5550244689	5542680312	36	143.551	12.847323803604723	0.15	4	40.225	0	1	;
	42435412	42445051	20	80.236	7.180847731510256	0.15	4	40.225	0	1	;
	42435412	42445046	20	78.239	7.002123057799876	0.15	4	40.225	0	1	;
	42435412	1203709420	8	31.645	2.832119328775637	0.15	4	40.225	0	1	;
	42435415	42435412	45	178.66400000000002	15.989817277812307	0.15	4	40.225	0	1	;
	42435415	42455493	21	85.117	7.617680546923555	0.15	4	40.225	0	1	;
	42435415	42451736	20	79.456	7.1110403977625865	0.15	4	40.225	0	1	;
	42435420	42427805	19	77.965	6.977600994406464	0.15	4	40.225	0	1	;
	42435420	42430288	68	273.947	24.517320074580482	0.15	4	40.225	0	1	;
	42435422	42435420	20	80.129	7.171271597265383	0.15	4	40.225	0	1	;
	42435422	4443775465	68	273.465	24.47418272218769	0.15	4	40.225	0	1	;
	42435435	7132405535	42	166.343	14.887129894344312	0.15	4	40.225	0	1	;
	4886250352	406006393	57	226.95399999999995	20.311607209446855	0.15	4	40.225	0	1	;
	4886250352	42451332	27	106.12599999999999	9.49791423244251	0.15	4	40.225	0	1	;
	42435451	42432246	20	78.218	7.000243629583592	0.15	4	40.225	0	1	;
	42435451	6123654602	7	27.412999999999997	2.453369794903667	0.15	4	40.225	0	1	;
	42435451	42435456	32	128.637	11.512571783716595	0.15	4	40.225	0	1	;
	42435456	42445612	19	75.477	6.754933499067744	0.15	4	40.225	0	1	;
	42435456	42435470	35	141.253	12.641660658794281	0.15	4	40.225	0	1	;
	42435470	42432174	34	134.088	12.000417650714729	0.15	4	40.225	0	1	;
	42435470	42432282	19	76.142	6.814448725916718	0.15	4	40.225	0	1	;
	42435477	42445498	18	73.792	6.6041317588564326	0.15	4	40.225	0	1	;
	42435477	42435485	21	83.875	7.5065257924176505	0.15	4	40.225	0	1	;
	42435485	42445505	14	57.939	5.185342448725916	0.15	4	40.225	0	1	;
	42435485	1918039869	24	97.08999999999999	8.689223119950277	0.15	4	40.225	0	1	;
	246858654	246901366	10	38.743	3.4673660658794287	0.15	4	40.225	0	1	;
	246858654	1772136801	11	42.829	3.833049098819142	0.15	4	40.225	0	1	;
	42435491	42445511	9	37.025999999999996	3.3137004350528274	0.15	4	40.225	0	1	;
	42435491	1692433914	25	98.70599999999999	8.833849596022374	0.15	4	40.225	0	1	;
	42435497	42435499	39	155.22299999999998	13.891927905531384	0.15	4	40.225	0	1	;
	42435497	42448203	20	81.07000000000001	7.255487880671224	0.15	4	40.225	0	1	;
	42435499	596776120	36	144.227	12.907823492852703	0.15	4	40.225	0	1	;
	42435499	42446036	20	80.267	7.183622125543816	0.15	4	40.225	0	1	;
	42435504	42435509	36	145.892	13.056835301429459	0.15	4	40.225	0	1	;
	42435504	42458766	20	79.946	7.154893722809198	0.15	4	40.225	0	1	;
	42435509	42435514	39	154.466	13.824178993163455	0.15	4	40.225	0	1	;
	42435509	42447126	20	80.735	7.225506525792418	0.15	4	40.225	0	1	;
	62915509	42430680	53	212.56099999999998	19.023482908638904	0.15	4	40.225	0	1	;
	62915509	62915527	20	81.54599999999999	7.298088253573647	0.15	4	40.225	0	1	;
	42435514	42435516	54	215.679	19.30253325046613	0.15	4	40.225	0	1	;
	42435514	42450028	20	80.217	7.179147296457427	0.15	4	40.225	0	1	;
	62915514	42430688	49	196.37599999999998	17.574980733374762	0.15	4	40.225	0	1	;
	62915514	62915531	20	79.476	7.11283032939714	0.15	4	40.225	0	1	;
	42435516	42443032	20	80.929	7.242868862647608	0.15	4	40.225	0	1	;
	42435516	42435518	57	228.757	20.472969546302053	0.15	4	40.225	0	1	;
	62915516	42430694	49	196.368	17.574264760720943	0.15	4	40.225	0	1	;
	62915516	62915536	20	79.88300000000001	7.149255438160349	0.15	4	40.225	0	1	;
	42435518	42428032	54	216.696	19.393551274083283	0.15	4	40.225	0	1	;
	42435518	42456066	20	80.491	7.203669359850839	0.15	4	40.225	0	1	;
	62915521	42430704	49	196.017	17.542851460534493	0.15	4	40.225	0	1	;
	62915521	61275601	19	77.301	6.918175264139218	0.15	4	40.225	0	1	;
	42435522	589298105	23	90.014	8.0559453076445	0.15	4	40.225	0	1	;
	42435522	42451766	20	80.089	7.167691733996271	0.15	4	40.225	0	1	;