<NUMBER OF ZONES> 23219 
<TOTAL OD FLOW> 1000
<END OF METADATA> 

Origin	233783297	
		247037929 : 1;		4604559340 : 1;		5015699438 : 2;		4594335727 : 2;		247037935 : 2;		4594335729 : 2;		247037936 : 3;		247037937 : 2;		571883509 : 3;		4604559345 : 2;		1931968496 : 1;		4604559352 : 3;		1931968501 : 3;		1398079475 : 2;		4594335734 : 2;		1931968508 : 1;		376619005 : 2;		1363263487 : 3;

Origin	626491396	
		247037929 : 3;		4604559340 : 2;		5015699438 : 2;		4594335727 : 2;		247037935 : 3;		4594335729 : 2;		247037936 : 3;		247037937 : 2;		571883509 : 2;		4604559345 : 2;		1931968496 : 2;		4604559352 : 2;		1931968501 : 1;		1398079475 : 2;		4594335734 : 2;		1931968508 : 2;		376619005 : 2;		1363263487 : 2;

Origin	5015699464	
		247037929 : 3;		4604559340 : 3;		5015699438 : 2;		4594335727 : 2;		247037935 : 2;		4594335729 : 2;		247037936 : 3;		247037937 : 2;		571883509 : 1;		4604559345 : 1;		1931968496 : 2;		4604559352 : 2;		1931968501 : 1;		1398079475 : 3;		4594335734 : 3;		1931968508 : 2;		376619005 : 3;		1363263487 : 2;

Origin	5015699465	
		247037929 : 2;		4604559340 : 3;		5015699438 : 2;		4594335727 : 3;		247037935 : 1;		4594335729 : 2;		247037936 : 3;		247037937 : 2;		571883509 : 3;		4604559345 : 2;		1931968496 : 1;		4604559352 : 2;		1931968501 : 2;		1398079475 : 2;		4594335734 : 1;		1931968508 : 1;		376619005 : 3;		1363263487 : 3;

Origin	5015699467	
		247037929 : 2;		4604559340 : 2;		5015699438 : 2;		4594335727 : 2;		247037935 : 2;		4594335729 : 3;		247037936 : 3;		247037937 : 3;		571883509 : 2;		4604559345 : 2;		1931968496 : 3;		4604559352 : 3;		1931968501 : 3;		1398079475 : 2;		4594335734 : 2;		1931968508 : 2;		376619005 : 3;		1363263487 : 2;

Origin	4604559376	
		247037929 : 2;		4604559340 : 2;		5015699438 : 2;		4594335727 : 3;		247037935 : 3;		4594335729 : 3;		247037936 : 1;		247037937 : 3;		571883509 : 2;		4604559345 : 2;		1931968496 : 2;		4604559352 : 2;		1931968501 : 1;		1398079475 : 3;		4594335734 : 2;		1931968508 : 2;		376619005 : 3;		1363263487 : 1;

Origin	626491409	
		247037929 : 3;		4604559340 : 2;		5015699438 : 3;		4594335727 : 3;		247037935 : 2;		4594335729 : 2;		247037936 : 3;		247037937 : 1;		571883509 : 2;		4604559345 : 2;		1931968496 : 1;		4604559352 : 2;		1931968501 : 2;		1398079475 : 2;		4594335734 : 2;		1931968508 : 3;		376619005 : 3;		1363263487 : 1;

Origin	626491410	
		247037929 : 3;		4604559340 : 3;		5015699438 : 3;		4594335727 : 2;		247037935 : 3;		4594335729 : 3;		247037936 : 1;		247037937 : 2;		571883509 : 3;		4604559345 : 1;		1931968496 : 2;		4604559352 : 3;		1931968501 : 3;		1398079475 : 2;		4594335734 : 1;		1931968508 : 3;		376619005 : 2;		1363263487 : 2;

Origin	1363263508	
		247037929 : 2;		4604559340 : 2;		5015699438 : 3;		4594335727 : 2;		247037935 : 3;		4594335729 : 2;		247037936 : 2;		247037937 : 2;		571883509 : 1;		4604559345 : 3;		1931968496 : 1;		4604559352 : 2;		1931968501 : 2;		1398079475 : 2;		4594335734 : 2;		1931968508 : 3;		376619005 : 2;		1363263487 : 1;

Origin	535167001	
		247037929 : 3;		4604559340 : 2;		5015699438 : 3;		4594335727 : 2;		247037935 : 3;		4594335729 : 2;		247037936 : 2;		247037937 : 3;		571883509 : 3;		4604559345 : 3;		1931968496 : 3;		4604559352 : 2;		1931968501 : 3;		1398079475 : 3;		4594335734 : 2;		1931968508 : 3;		376619005 : 3;		1363263487 : 2;

Origin	1363263517	
		247037929 : 2;		4604559340 : 3;		5015699438 : 2;		4594335727 : 2;		247037935 : 3;		4594335729 : 2;		247037936 : 3;		247037937 : 2;		571883509 : 3;		4604559345 : 2;		1931968496 : 2;		4604559352 : 2;		1931968501 : 2;		1398079475 : 3;		4594335734 : 2;		1931968508 : 3;		376619005 : 2;		1363263487 : 2;

Origin	2428731422	
		247037929 : 3;		4604559340 : 2;		5015699438 : 3;		4594335727 : 2;		247037935 : 2;		4594335729 : 2;		247037936 : 3;		247037937 : 3;		571883509 : 2;		4604559345 : 2;		1931968496 : 2;		4604559352 : 2;		1931968501 : 2;		1398079475 : 3;		4594335734 : 2;		1931968508 : 2;		376619005 : 2;		1363263487 : 3;

Origin	4006805534	
		247037929 : 2;		4604559340 : 3;		5015699438 : 3;		4594335727 : 2;		247037935 : 3;		4594335729 : 2;		247037936 : 1;		247037937 : 2;		571883509 : 3;		4604559345 : 3;		1931968496 : 2;		4604559352 : 2;		1931968501 : 2;		1398079475 : 2;		4594335734 : 3;		1931968508 : 3;		376619005 : 3;		1363263487 : 2;

Origin	4006805539	
		247037929 : 3;		4604559340 : 2;		5015699438 : 2;		4594335727 : 3;		247037935 : 3;		4594335729 : 2;		247037936 : 2;		247037937 : 1;		571883509 : 1;		4604559345 : 1;		1931968496 : 2;		4604559352 : 2;		1931968501 : 2;		1398079475 : 2;		4594335734 : 2;		1931968508 : 2;		376619005 : 2;		1363263487 : 2;

Origin	2428731428	
		247037929 : 2;		4604559340 : 2;		5015699438 : 2;		4594335727 : 2;		247037935 : 2;		4594335729 : 1;		247037936 : 2;		247037937 : 2;		571883509 : 3;		4604559345 : 2;		1931968496 : 2;		4604559352 : 1;		1931968501 : 2;		1398079475 : 2;		4594335734 : 2;		1931968508 : 2;		376619005 : 2;		1363263487 : 2;

Origin	376619044	
		247037929 : 2;		4604559340 : 3;		5015699438 : 3;		4594335727 : 2;		247037935 : 3;		4594335729 : 3;		247037936 : 3;		247037937 : 2;		571883509 : 2;		4604559345 : 2;		1931968496 : 2;		4604559352 : 2;		1931968501 : 3;		1398079475 : 3;		4594335734 : 2;		1931968508 : 2;		376619005 : 3;		1363263487 : 2;

Origin	247709736	
		247037929 : 2;		4604559340 : 2;		5015699438 : 3;		4594335727 : 3;		247037935 : 3;		4594335729 : 2;		247037936 : 1;		247037937 : 2;		571883509 : 2;		4604559345 : 3;		1931968496 : 3;		4604559352 : 3;		1931968501 : 2;		1398079475 : 2;		4594335734 : 2;		1931968508 : 3;		376619005 : 2;		1363263487 : 3;

Origin	4008935465	
		247037929 : 2;		4604559340 : 3;		5015699438 : 3;		4594335727 : 2;		247037935 : 3;		4594335729 : 1;		247037936 : 2;		247037937 : 2;		571883509 : 2;		4604559345 : 2;		1931968496 : 2;		4604559352 : 3;		1931968501 : 3;		1398079475 : 2;		4594335734 : 2;		1931968508 : 3;		376619005 : 2;		1363263487 : 2;

Origin	535167020	
		247037929 : 3;		4604559340 : 2;		5015699438 : 3;		4594335727 : 3;		247037935 : 3;		4594335729 : 3;		247037936 : 2;		247037937 : 2;		571883509 : 2;		4604559345 : 1;		1931968496 : 3;		4604559352 : 2;		1931968501 : 1;		1398079475 : 1;		4594335734 : 3;		1931968508 : 3;		376619005 : 2;		1363263487 : 2;

Origin	1363263536	
		247037929 : 2;		4604559340 : 2;		5015699438 : 2;		4594335727 : 3;		247037935 : 2;		4594335729 : 2;		247037936 : 2;		247037937 : 2;		571883509 : 2;		4604559345 : 1;		1931968496 : 2;		4604559352 : 2;		1931968501 : 2;		1398079475 : 2;		4594335734 : 2;		1931968508 : 2;		376619005 : 2;		1363263487 : 2;

Origin	1363263538	
		247037929 : 3;		4604559340 : 3;		5015699438 : 2;		4594335727 : 2;		247037935 : 3;		4594335729 : 2;		247037936 : 3;		247037937 : 2;		571883509 : 2;		4604559345 : 2;		1931968496 : 3;		4604559352 : 2;		1931968501 : 3;		1398079475 : 2;		4594335734 : 3;		1931968508 : 2;		376619005 : 3;		1363263487 : 3;

Origin	6938787891	
		247037929 : 1;		4604559340 : 3;		5015699438 : 2;		4594335727 : 2;		247037935 : 2;		4594335729 : 2;		247037936 : 1;		247037937 : 2;		571883509 : 2;		4604559345 : 2;		1931968496 : 2;		4604559352 : 2;		1931968501 : 2;		1398079475 : 3;		4594335734 : 2;		1931968508 : 3;		376619005 : 3;		1363263487 : 3;

Origin	5233639475	
		247037929 : 2;		4604559340 : 2;		5015699438 : 2;		4594335727 : 1;		247037935 : 1;		4594335729 : 3;		247037936 : 1;		247037937 : 1;		571883509 : 2;		4604559345 : 3;		1931968496 : 2;		4604559352 : 2;		1931968501 : 3;		1398079475 : 1;		4594335734 : 3;		1931968508 : 2;		376619005 : 3;		1363263487 : 1;

Origin	1363263545	
		247037929 : 3;		4604559340 : 3;		5015699438 : 2;		4594335727 : 3;		247037935 : 3;		4594335729 : 3;		247037936 : 3;		247037937 : 2;		571883509 : 2;		4604559345 : 2;		1931968496 : 3;		4604559352 : 3;		1931968501 : 3;		1398079475 : 2;		4594335734 : 1;		1931968508 : 2;		376619005 : 3;		1363263487 : 2;

Origin	1363263549	
		247037929 : 2;		4604559340 : 1;		5015699438 : 2;		4594335727 : 2;		247037935 : 2;		4594335729 : 2;		247037936 : 2;		247037937 : 1;		571883509 : 2;		4604559345 : 1;		1931968496 : 3;		4604559352 : 2;		1931968501 : 2;		1398079475 : 2;		4594335734 : 3;		1931968508 : 2;		376619005 : 2;		1363263487 : 1;

