<NUMBER OF ZONES> 23219 
<TOTAL OD FLOW> 
<END OF METADATA> 

Origin	2428731422	
		1398079462 : 5;		247037926 : 5;		1931968487 : 5;		247037929 : 5;		4604559340 : 5;		5015699438 : 5;		4594335727 : 5;		247037935 : 5;		4594335729 : 5;		247037936 : 5;

Origin	4006805534	
		1398079462 : 5;		247037926 : 5;		1931968487 : 5;		247037929 : 5;		4604559340 : 5;		5015699438 : 5;		4594335727 : 5;		247037935 : 5;		4594335729 : 5;		247037936 : 5;

Origin	4006805539	
		1398079462 : 5;		247037926 : 5;		1931968487 : 5;		247037929 : 5;		4604559340 : 5;		5015699438 : 5;		4594335727 : 5;		247037935 : 5;		4594335729 : 5;		247037936 : 5;

Origin	2428731428	
		1398079462 : 5;		247037926 : 5;		1931968487 : 5;		247037929 : 5;		4604559340 : 5;		5015699438 : 5;		4594335727 : 5;		247037935 : 5;		4594335729 : 5;		247037936 : 5;

Origin	376619044	
		1398079462 : 5;		247037926 : 5;		1931968487 : 5;		247037929 : 5;		4604559340 : 5;		5015699438 : 5;		4594335727 : 5;		247037935 : 5;		4594335729 : 5;		247037936 : 5;

Origin	247709736	
		1398079462 : 5;		247037926 : 5;		1931968487 : 5;		247037929 : 5;		4604559340 : 5;		5015699438 : 5;		4594335727 : 5;		247037935 : 5;		4594335729 : 5;		247037936 : 5;

Origin	4008935465	
		1398079462 : 5;		247037926 : 5;		1931968487 : 5;		247037929 : 5;		4604559340 : 5;		5015699438 : 5;		4594335727 : 5;		247037935 : 5;		4594335729 : 5;		247037936 : 5;

Origin	535167020	
		1398079462 : 5;		247037926 : 5;		1931968487 : 5;		247037929 : 5;		4604559340 : 5;		5015699438 : 5;		4594335727 : 5;		247037935 : 5;		4594335729 : 5;		247037936 : 5;

Origin	1363263536	
		1398079462 : 5;		247037926 : 5;		1931968487 : 5;		247037929 : 5;		4604559340 : 5;		5015699438 : 5;		4594335727 : 5;		247037935 : 5;		4594335729 : 5;		247037936 : 5;

Origin	1363263538	
		1398079462 : 5;		247037926 : 5;		1931968487 : 5;		247037929 : 5;		4604559340 : 5;		5015699438 : 5;		4594335727 : 5;		247037935 : 5;		4594335729 : 5;		247037936 : 5;

