<NUMBER OF ZONES> 23219 
<TOTAL OD FLOW> 
<END OF METADATA> 

Origin	6574784590	
		4691361738 : 5;		4691361746 : 5;		1931968469 : 5;		247037912 : 5;		1398079450 : 5;		1931968474 : 5;		1931968476 : 5;		247037916 : 5;		1931968478 : 5;		247037917 : 5;

Origin	1395048531	
		4691361738 : 5;		4691361746 : 5;		1931968469 : 5;		247037912 : 5;		1398079450 : 5;		1931968474 : 5;		1931968476 : 5;		247037916 : 5;		1931968478 : 5;		247037917 : 5;

Origin	1363263572	
		4691361738 : 5;		4691361746 : 5;		1931968469 : 5;		247037912 : 5;		1398079450 : 5;		1931968474 : 5;		1931968476 : 5;		247037916 : 5;		1931968478 : 5;		247037917 : 5;

Origin	1395048533	
		4691361738 : 5;		4691361746 : 5;		1931968469 : 5;		247037912 : 5;		1398079450 : 5;		1931968474 : 5;		1931968476 : 5;		247037916 : 5;		1931968478 : 5;		247037917 : 5;

Origin	370327638	
		4691361738 : 5;		4691361746 : 5;		1931968469 : 5;		247037912 : 5;		1398079450 : 5;		1931968474 : 5;		1931968476 : 5;		247037916 : 5;		1931968478 : 5;		247037917 : 5;

Origin	1395048532	
		4691361738 : 5;		4691361746 : 5;		1931968469 : 5;		247037912 : 5;		1398079450 : 5;		1931968474 : 5;		1931968476 : 5;		247037916 : 5;		1931968478 : 5;		247037917 : 5;

Origin	1363263576	
		4691361738 : 5;		4691361746 : 5;		1931968469 : 5;		247037912 : 5;		1398079450 : 5;		1931968474 : 5;		1931968476 : 5;		247037916 : 5;		1931968478 : 5;		247037917 : 5;

Origin	2990751834	
		4691361738 : 5;		4691361746 : 5;		1931968469 : 5;		247037912 : 5;		1398079450 : 5;		1931968474 : 5;		1931968476 : 5;		247037916 : 5;		1931968478 : 5;		247037917 : 5;

Origin	6040846429	
		4691361738 : 5;		4691361746 : 5;		1931968469 : 5;		247037912 : 5;		1398079450 : 5;		1931968474 : 5;		1931968476 : 5;		247037916 : 5;		1931968478 : 5;		247037917 : 5;

Origin	6040846430	
		4691361738 : 5;		4691361746 : 5;		1931968469 : 5;		247037912 : 5;		1398079450 : 5;		1931968474 : 5;		1931968476 : 5;		247037916 : 5;		1931968478 : 5;		247037917 : 5;

