<NUMBER OF ZONES> 23219 
<TOTAL OD FLOW> 
<END OF METADATA> 

Origin	6938787891	
		3072737248 : 5;		3072737249 : 5;		3072737250 : 5;		247037919 : 5;		1625964516 : 5;		247037920 : 5;		247037918 : 5;		247037922 : 5;		247037923 : 5;		247037925 : 5;

Origin	5233639475	
		3072737248 : 5;		3072737249 : 5;		3072737250 : 5;		247037919 : 5;		1625964516 : 5;		247037920 : 5;		247037918 : 5;		247037922 : 5;		247037923 : 5;		247037925 : 5;

Origin	1363263545	
		3072737248 : 5;		3072737249 : 5;		3072737250 : 5;		247037919 : 5;		1625964516 : 5;		247037920 : 5;		247037918 : 5;		247037922 : 5;		247037923 : 5;		247037925 : 5;

Origin	1363263549	
		3072737248 : 5;		3072737249 : 5;		3072737250 : 5;		247037919 : 5;		1625964516 : 5;		247037920 : 5;		247037918 : 5;		247037922 : 5;		247037923 : 5;		247037925 : 5;

Origin	571883592	
		3072737248 : 5;		3072737249 : 5;		3072737250 : 5;		247037919 : 5;		1625964516 : 5;		247037920 : 5;		247037918 : 5;		247037922 : 5;		247037923 : 5;		247037925 : 5;

Origin	6574784589	
		3072737248 : 5;		3072737249 : 5;		3072737250 : 5;		247037919 : 5;		1625964516 : 5;		247037920 : 5;		247037918 : 5;		247037922 : 5;		247037923 : 5;		247037925 : 5;

Origin	4684431438	
		3072737248 : 5;		3072737249 : 5;		3072737250 : 5;		247037919 : 5;		1625964516 : 5;		247037920 : 5;		247037918 : 5;		247037922 : 5;		247037923 : 5;		247037925 : 5;

Origin	4684431439	
		3072737248 : 5;		3072737249 : 5;		3072737250 : 5;		247037919 : 5;		1625964516 : 5;		247037920 : 5;		247037918 : 5;		247037922 : 5;		247037923 : 5;		247037925 : 5;

Origin	4684431440	
		3072737248 : 5;		3072737249 : 5;		3072737250 : 5;		247037919 : 5;		1625964516 : 5;		247037920 : 5;		247037918 : 5;		247037922 : 5;		247037923 : 5;		247037925 : 5;

Origin	4684431441	
		3072737248 : 5;		3072737249 : 5;		3072737250 : 5;		247037919 : 5;		1625964516 : 5;		247037920 : 5;		247037918 : 5;		247037922 : 5;		247037923 : 5;		247037925 : 5;

