<NUMBER OF ZONES> 23219 
<TOTAL OD FLOW> 
<END OF METADATA> 

Origin	7012974711	
		4691361722 : 5;		247037885 : 5;		4712071101 : 5;		5683756991 : 5;		5683756992 : 5;		5683756993 : 5;		1625964482 : 5;		1363263429 : 5;		4691361733 : 5;		4691361734 : 5;

Origin	1395048568	
		4691361722 : 5;		247037885 : 5;		4712071101 : 5;		5683756991 : 5;		5683756992 : 5;		5683756993 : 5;		1625964482 : 5;		1363263429 : 5;		4691361733 : 5;		4691361734 : 5;

Origin	409469055	
		4691361722 : 5;		247037885 : 5;		4712071101 : 5;		5683756991 : 5;		5683756992 : 5;		5683756993 : 5;		1625964482 : 5;		1363263429 : 5;		4691361733 : 5;		4691361734 : 5;

Origin	409469056	
		4691361722 : 5;		247037885 : 5;		4712071101 : 5;		5683756991 : 5;		5683756992 : 5;		5683756993 : 5;		1625964482 : 5;		1363263429 : 5;		4691361733 : 5;		4691361734 : 5;

Origin	409469057	
		4691361722 : 5;		247037885 : 5;		4712071101 : 5;		5683756991 : 5;		5683756992 : 5;		5683756993 : 5;		1625964482 : 5;		1363263429 : 5;		4691361733 : 5;		4691361734 : 5;

Origin	409469059	
		4691361722 : 5;		247037885 : 5;		4712071101 : 5;		5683756991 : 5;		5683756992 : 5;		5683756993 : 5;		1625964482 : 5;		1363263429 : 5;		4691361733 : 5;		4691361734 : 5;

Origin	409469060	
		4691361722 : 5;		247037885 : 5;		4712071101 : 5;		5683756991 : 5;		5683756992 : 5;		5683756993 : 5;		1625964482 : 5;		1363263429 : 5;		4691361733 : 5;		4691361734 : 5;

Origin	409469061	
		4691361722 : 5;		247037885 : 5;		4712071101 : 5;		5683756991 : 5;		5683756992 : 5;		5683756993 : 5;		1625964482 : 5;		1363263429 : 5;		4691361733 : 5;		4691361734 : 5;

Origin	409469062	
		4691361722 : 5;		247037885 : 5;		4712071101 : 5;		5683756991 : 5;		5683756992 : 5;		5683756993 : 5;		1625964482 : 5;		1363263429 : 5;		4691361733 : 5;		4691361734 : 5;

Origin	1831960718	
		4691361722 : 5;		247037885 : 5;		4712071101 : 5;		5683756991 : 5;		5683756992 : 5;		5683756993 : 5;		1625964482 : 5;		1363263429 : 5;		4691361733 : 5;		4691361734 : 5;

