<NUMBER OF ZONES> 23219 
<TOTAL OD FLOW> 70
<END OF METADATA> 

Origin	4602578367	
		1931970935 : 5;		1931970935 : 4;

Origin	172510077	
		172510077 : 4;

Origin	232119579	
		1395048591 : 2;		376617881 : 2;

Origin	232082341	
		1363263517 : 2;

Origin	4604149174	
		3066261840 : 2;		3066261840 : 1;

Origin	4604305423	
		233497179 : 1;

Origin	626325205	
		2642043056 : 1;		376617881 : 2;		1363263538 : 2;

Origin	4935012103	
		243472537 : 3;		232147312 : 1;		243472537 : 1;		1363263538 : 1;

Origin	4935012075	
		7057454039 : 4;		7057454039 : 5;		7057454039 : 1;

Origin	4591897651	
		394634486 : 2;		376617881 : 1;

Origin	1189615975	
		243472537 : 1;		232147312 : 5;		243472537 : 1;		1363263538 : 3;

Origin	4593195689	
		376617881 : 4;

Origin	248018507	
		243472537 : 3;		232147312 : 1;		243472537 : 4;		1363263538 : 1;

