<NUMBER OF ZONES> 23219 
<TOTAL OD FLOW> 2884
<END OF METADATA> 

Origin	4602578367	
		139703496 : 9;		1931970935 : 2;		626494418 : 5;		4604484211 : 9;		4726909201 : 1;		1531151911 : 8;		4724385986 : 3;		7018501234 : 1;		6690227946 : 10;		4604484210 : 10;		1931970935 : 4;		1931970935 : 6;

Origin	232119579	
		5659537771 : 10;		241900943 : 1;		1395048568 : 8;		1395048591 : 6;		376617881 : 7;

Origin	232082341	
		1363263601 : 5;		1363263517 : 6;

Origin	172510077	
		172510077 : 4;

Origin	6690306584	
		139703496 : 2;		626494418 : 1;		1531151911 : 3;		3066261840 : 3;		4604554268 : 9;		3066261840 : 2;		233497179 : 4;		3066261840 : 10;		139703496 : 10;		626494418 : 7;		1531151911 : 8;

Origin	4604149174	
		3066261840 : 8;		4604554268 : 10;		3066261840 : 4;		3066261840 : 8;

Origin	6657231950	
		254643965 : 8;		254643965 : 7;

Origin	626325205	
		5659537771 : 6;		241900943 : 9;		4726909201 : 9;		2642043114 : 9;		2642043056 : 4;		376617881 : 2;		1363263538 : 10;

Origin	240713181	
		243670980 : 9;		7018501234 : 10;

Origin	626491396	
		1790473242 : 6;

Origin	4604305423	
		233497179 : 9;

Origin	4935012103	
		230928317 : 6;		243472537 : 9;		1531151904 : 5;		385614453 : 1;		1717955718 : 4;		5282732739 : 7;		254668833 : 6;		1363270467 : 4;		385614453 : 8;		4604554268 : 1;		385614453 : 8;		243472537 : 8;		232147312 : 5;		243472537 : 1;		1363263538 : 4;

Origin	245174930	
		247709736 : 4;		247709736 : 6;

Origin	4935012075	
		439978132 : 6;		7057454039 : 10;		7057454039 : 10;		439978132 : 4;		7057454039 : 10;		7057454039 : 3;		439978132 : 1;		7057454039 : 3;		7057454039 : 1;

Origin	4591897651	
		394634486 : 9;		376617881 : 10;

Origin	1189615975	
		230928317 : 5;		243472537 : 4;		1531151904 : 7;		385614453 : 2;		1717955718 : 3;		5282732739 : 6;		254668833 : 5;		1363270467 : 2;		385614453 : 5;		4604554268 : 7;		385614453 : 6;		243472537 : 9;		232147312 : 8;		243472537 : 1;		1363263538 : 10;

Origin	4593195689	
		376617881 : 6;

Origin	248018507	
		230928317 : 7;		243472537 : 5;		1531151904 : 4;		385614453 : 10;		1717955718 : 3;		5282732739 : 8;		254668833 : 4;		1363270467 : 7;		385614453 : 6;		4604554268 : 10;		385614453 : 6;		243472537 : 9;		232147312 : 5;		243472537 : 3;		1363263538 : 7;

Origin	245174913	
		247709736 : 8;

Origin	247037912	
		139703496 : 7;		243472488 : 6;		5659537771 : 2;		247037912 : 7;		376617881 : 6;		139703496 : 4;		243472488 : 6;		247037912 : 2;		247037922 : 5;		376617881 : 4;

Origin	378665927	
		6497099643 : 10;		6497099643 : 2;		6497099643 : 4;

Origin	139642419	
		139642419 : 7;		139642419 : 8;		139642419 : 9;		139642419 : 10;		139642419 : 6;		139642419 : 10;

Origin	4728054624	
		241900943 : 5;		2642043114 : 10;		1363270467 : 3;		233497179 : 7;		2642043056 : 6;		1363263538 : 5;		5659537771 : 4;		241900943 : 3;		2642043114 : 6;		1363270467 : 3;		2642043056 : 9;		1363263538 : 4;

Origin	247037935	
		247037922 : 3;

Origin	4724385986	
		4724385986 : 3;		4724385986 : 5;

Origin	626325192	
		4604554268 : 2;		243472537 : 7;		626325192 : 8;		1846569504 : 7;		1370091717 : 9;		1363270467 : 7;		626325192 : 6;		4604554268 : 5;		243472537 : 10;		233497179 : 1;		1370091717 : 7;		243472537 : 10;		1363263538 : 8;		243472537 : 6;		1846569504 : 5;		4592983037 : 8;		1363270467 : 5;		4604554268 : 6;		243472537 : 10;		233497179 : 9;		4592983037 : 9;		243472537 : 2;		1363263538 : 2;

Origin	3973611745	
		3066261840 : 3;		1363270467 : 4;		4604554268 : 8;		3066261840 : 6;		3066261840 : 9;

Origin	254643958	
		254643965 : 9;		254643965 : 7;

Origin	626489006	
		5659537771 : 8;		241900943 : 9;		4726909201 : 8;		2642043114 : 7;		2642043056 : 5;		376617881 : 10;		1363263538 : 8;

Origin	7135854972	
		243670980 : 1;		7135854972 : 8;

Origin	240713162	
		233497179 : 8;

Origin	1363273346	
		230928317 : 10;		139703496 : 8;		385614453 : 5;		5659537771 : 1;		241900943 : 7;		1717955718 : 8;		1395048568 : 7;		5282732739 : 5;		254668833 : 1;		385614453 : 2;		4604700548 : 7;		385614453 : 1;		1395048591 : 10;		376617881 : 4;

Origin	5231442833	
		1931970935 : 8;		4598515873 : 2;		1931970935 : 9;		1931970935 : 6;

Origin	1363263632	
		232147312 : 10;

Origin	1363263237	
		5233220878 : 5;

Origin	249392268	
		230928317 : 4;		5659537771 : 5;		241900943 : 8;		1395048568 : 9;		5282732739 : 2;		254668833 : 7;		1395048591 : 1;		5659537771 : 10;		241900943 : 1;

Origin	5284919543	
		5284714521 : 4;		4604700548 : 4;		5284714521 : 1;		5284714521 : 8;

Origin	2641816768	
		1531151904 : 2;

Origin	535167020	
		385614453 : 9;		385614453 : 2;		385614453 : 4;

Origin	6897534219	
		1717955718 : 4;		385614453 : 5;

Origin	4592983272	
		1363270467 : 6;		232147312 : 1;		243234038 : 7;

Origin	7025068757	
		376617881 : 5;		5284714521 : 7;		1363270467 : 2;		4604700548 : 6;		5284714521 : 1;		232147312 : 8;		5284714521 : 1;		243234038 : 9;

Origin	74454975	
		230928317 : 6;		139703496 : 7;		385614453 : 3;		5659537771 : 10;		241900943 : 9;		1717955718 : 3;		1395048568 : 8;		5282732739 : 3;		254668833 : 1;		74454975 : 1;		385614453 : 4;		385614453 : 8;		1395048591 : 2;		376617881 : 8;		230928317 : 8;		139703496 : 6;		385614453 : 5;		5659537771 : 1;		241900943 : 10;		1717955718 : 4;		1395048568 : 7;		5282732739 : 7;		254668833 : 1;		74454975 : 7;		385614453 : 5;		385614453 : 1;		1395048591 : 8;		376617881 : 10;		74454975 : 4;

Origin	1363263601	
		1931970935 : 10;		6690227946 : 3;		1931970935 : 1;		1931970935 : 10;		1931970935 : 10;		6690227946 : 1;		1931970935 : 9;		1931970935 : 5;		1931970935 : 6;		6690227946 : 8;		1931970935 : 10;		1931970935 : 8;		1931970935 : 9;		6690227946 : 9;		1931970935 : 7;		1931970935 : 9;

Origin	235180430	
		232147312 : 8;		232147312 : 4;		232147312 : 10;		232147312 : 5;

Origin	74389915	
		74389915 : 4;		74389915 : 10;		74389915 : 1;		74389915 : 10;

Origin	247037885	
		247037916 : 1;		247037916 : 1;		247037916 : 3;		247037916 : 10;		247037916 : 8;		247037916 : 9;

Origin	4604559376	
		1318459274 : 5;		4604559376 : 5;		5659537771 : 9;		4604559376 : 1;

Origin	243670975	
		243670975 : 3;		243670975 : 5;		425482442 : 2;

Origin	2428731428	
		4604559340 : 5;

Origin	385954271	
		425482442 : 8;

Origin	378630883	
		1366619428 : 4;		1366619428 : 4;		1363270467 : 7;		1363263538 : 1;

Origin	370783394	
		1272299472 : 3;		626325192 : 5;		626325192 : 1;		4604554268 : 10;		1272299472 : 4;		1683121556 : 9;		1272299472 : 9;		1272299472 : 1;		626325192 : 1;		626325192 : 8;		4604554268 : 10;		1272299472 : 4;		1683121556 : 8;		1272299472 : 6;

Origin	239825196	
		1318459274 : 9;		1395048591 : 6;		2642043199 : 1;		2642043199 : 2;		425482442 : 3;

Origin	7165512672	
		247037916 : 10;		247037925 : 1;		5686574881 : 10;

Origin	239833543	
		139642419 : 8;

Origin	230928686	
		1366619428 : 5;		1366619428 : 9;		1363270467 : 5;		1363263538 : 6;

Origin	370786886	
		5659537771 : 8;		241900904 : 5;		2642043199 : 6;		2642043199 : 5;		425482442 : 5;

Origin	230928102	
		247037916 : 2;		247037925 : 10;		5686574881 : 10;

Origin	5187155470	
		139642419 : 9;

Origin	385614453	
		385614453 : 8;		385614453 : 6;		385614453 : 9;

Origin	376617842	
		230928317 : 2;		243472537 : 3;		1531151904 : 2;		385614453 : 9;		247709736 : 5;		439978132 : 4;		1717955718 : 8;		7057454039 : 5;		5282732739 : 8;		254668833 : 9;		1363270467 : 6;		385614453 : 9;		4604554268 : 10;		385614453 : 6;		243472537 : 8;		232147312 : 4;		7057454039 : 7;		243472537 : 8;		1363263538 : 6;

Origin	376617707	
		376617707 : 4;

Origin	5656792337	
		230928317 : 7;		243472537 : 8;		5282732739 : 8;		4604554268 : 6;		243472537 : 2;		243472537 : 4;

Origin	4593448998	
		1706605936 : 7;

Origin	4684558080	
		385614453 : 6;		1717955718 : 9;		254668833 : 4;		385614453 : 1;		385614453 : 3;		394634486 : 2;

Origin	247709736	
		247709736 : 8;

Origin	3662273899	
		240417039 : 6;		4598764309 : 8;		1363270467 : 4;		232147312 : 1;		1395048591 : 3;		243234038 : 7;

Origin	365302014	
		139642645 : 9;		3633794755 : 6;		626494418 : 9;		4604484211 : 3;		4726909201 : 1;		7018501234 : 7;		4604700548 : 8;		4604484211 : 8;		3633794755 : 2;		3633794755 : 9;

Origin	1887880995	
		5659537771 : 1;		241900943 : 10;		2642043114 : 8;		2642043056 : 7;		376617881 : 8;

Origin	311763749	
		1531151911 : 4;		254668833 : 3;

Origin	5243359405	
		1363263601 : 7;		232082341 : 9;		1363263517 : 6;

Origin	886297460	
		230928317 : 5;		1531151904 : 8;		1717955718 : 10;		2642043114 : 5;		5282732739 : 9;		254668833 : 10;		2642043056 : 5;		376617881 : 10;

Origin	1223811797	
		385614453 : 7;		385614453 : 8;

Origin	409000687	
		230928317 : 5;		139703496 : 4;		385614453 : 3;		1717955718 : 6;		5282732739 : 6;		254668833 : 6;		385614453 : 4;		385614453 : 5;		376617881 : 8;

Origin	408999675	
		5659537771 : 2;		241900943 : 7;		1395048568 : 3;		1395048591 : 1;

Origin	6938787891	
		139703496 : 1;		3633794257 : 1;		626494418 : 9;		4604484211 : 7;		1318459274 : 7;		241900943 : 1;		4726909201 : 4;		2642043114 : 9;		1531151911 : 5;		243670980 : 6;		1363263601 : 2;		7018501234 : 5;		1931970935 : 7;		4604484211 : 7;		3633794257 : 4;		595497945 : 6;		2642043056 : 5;		3633794257 : 4;		376617881 : 5;		1363263517 : 6;

Origin	158094620	
		230928317 : 6;		139703496 : 2;		5659537771 : 4;		241900943 : 8;		243472488 : 2;		1395048568 : 2;		5282732739 : 6;		254668833 : 3;		1395048591 : 7;		394634486 : 4;

Origin	2750379975	
		1931970935 : 7;		4604484211 : 5;		7018501234 : 1;		6690227946 : 3;		4604484210 : 5;		1931970935 : 10;		232353783 : 7;		1931970935 : 10;

Origin	74405854	
		1275666709 : 5;

Origin	471501777	
		74407251 : 9;

Origin	5166351540	
		230928317 : 9;		139703496 : 9;		385614453 : 10;		5659537771 : 4;		241900943 : 10;		1717955718 : 9;		1395048568 : 6;		5282732739 : 7;		254668833 : 4;		385614453 : 5;		385614453 : 5;		1395048591 : 9;		376617881 : 2;

Origin	26778799	
		26778799 : 3;

Origin	4598515875	
		230928317 : 2;		139703496 : 3;		385614453 : 2;		5659537771 : 1;		241900943 : 8;		1717955718 : 2;		1395048568 : 6;		5282732739 : 7;		254668833 : 7;		385614453 : 2;		385614453 : 6;		1395048591 : 5;		376617881 : 2;

Origin	4598515873	
		1931970935 : 1;		4598515873 : 3;		6690227946 : 4;		1931970935 : 6;		1931970935 : 8;

Origin	5186954729	
		232147312 : 3;

Origin	74389911	
		74389911 : 5;

