<NUMBER OF ZONES> 23219 
<TOTAL OD FLOW> 
<END OF METADATA> 

Origin	1773060097	
		42434465 : 5;		5051482018 : 5;		1205714871 : 5;		278609863 : 5;		5131026388 : 5;		60915682 : 5;		1205714926 : 5;		374472690 : 5;		6384484348 : 5;		42434559 : 5;

Origin	1773060099	
		42434465 : 5;		5051482018 : 5;		1205714871 : 5;		278609863 : 5;		5131026388 : 5;		60915682 : 5;		1205714926 : 5;		374472690 : 5;		6384484348 : 5;		42434559 : 5;

Origin	6177439749	
		42434465 : 5;		5051482018 : 5;		1205714871 : 5;		278609863 : 5;		5131026388 : 5;		60915682 : 5;		1205714926 : 5;		374472690 : 5;		6384484348 : 5;		42434559 : 5;

Origin	6177439750	
		42434465 : 5;		5051482018 : 5;		1205714871 : 5;		278609863 : 5;		5131026388 : 5;		60915682 : 5;		1205714926 : 5;		374472690 : 5;		6384484348 : 5;		42434559 : 5;

Origin	6177439752	
		42434465 : 5;		5051482018 : 5;		1205714871 : 5;		278609863 : 5;		5131026388 : 5;		60915682 : 5;		1205714926 : 5;		374472690 : 5;		6384484348 : 5;		42434559 : 5;

Origin	278609934	
		42434465 : 5;		5051482018 : 5;		1205714871 : 5;		278609863 : 5;		5131026388 : 5;		60915682 : 5;		1205714926 : 5;		374472690 : 5;		6384484348 : 5;		42434559 : 5;

Origin	6177439759	
		42434465 : 5;		5051482018 : 5;		1205714871 : 5;		278609863 : 5;		5131026388 : 5;		60915682 : 5;		1205714926 : 5;		374472690 : 5;		6384484348 : 5;		42434559 : 5;

Origin	42434589	
		42434465 : 5;		5051482018 : 5;		1205714871 : 5;		278609863 : 5;		5131026388 : 5;		60915682 : 5;		1205714926 : 5;		374472690 : 5;		6384484348 : 5;		42434559 : 5;

Origin	1773076509	
		42434465 : 5;		5051482018 : 5;		1205714871 : 5;		278609863 : 5;		5131026388 : 5;		60915682 : 5;		1205714926 : 5;		374472690 : 5;		6384484348 : 5;		42434559 : 5;

Origin	1773076511	
		42434465 : 5;		5051482018 : 5;		1205714871 : 5;		278609863 : 5;		5131026388 : 5;		60915682 : 5;		1205714926 : 5;		374472690 : 5;		6384484348 : 5;		42434559 : 5;

