<NUMBER OF ZONES> 23219 
<TOTAL OD FLOW> 
<END OF METADATA> 

Origin	233783297	
		571883509 : 5;		4604559345 : 5;		1931968496 : 5;		4604559352 : 5;		1931968501 : 5;		1398079475 : 5;		4594335734 : 5;		1931968508 : 5;		376619005 : 5;		1363263487 : 5;

Origin	626491396	
		571883509 : 5;		4604559345 : 5;		1931968496 : 5;		4604559352 : 5;		1931968501 : 5;		1398079475 : 5;		4594335734 : 5;		1931968508 : 5;		376619005 : 5;		1363263487 : 5;

Origin	5015699464	
		571883509 : 5;		4604559345 : 5;		1931968496 : 5;		4604559352 : 5;		1931968501 : 5;		1398079475 : 5;		4594335734 : 5;		1931968508 : 5;		376619005 : 5;		1363263487 : 5;

Origin	5015699465	
		571883509 : 5;		4604559345 : 5;		1931968496 : 5;		4604559352 : 5;		1931968501 : 5;		1398079475 : 5;		4594335734 : 5;		1931968508 : 5;		376619005 : 5;		1363263487 : 5;

Origin	5015699467	
		571883509 : 5;		4604559345 : 5;		1931968496 : 5;		4604559352 : 5;		1931968501 : 5;		1398079475 : 5;		4594335734 : 5;		1931968508 : 5;		376619005 : 5;		1363263487 : 5;

Origin	4604559376	
		571883509 : 5;		4604559345 : 5;		1931968496 : 5;		4604559352 : 5;		1931968501 : 5;		1398079475 : 5;		4594335734 : 5;		1931968508 : 5;		376619005 : 5;		1363263487 : 5;

Origin	626491409	
		571883509 : 5;		4604559345 : 5;		1931968496 : 5;		4604559352 : 5;		1931968501 : 5;		1398079475 : 5;		4594335734 : 5;		1931968508 : 5;		376619005 : 5;		1363263487 : 5;

Origin	626491410	
		571883509 : 5;		4604559345 : 5;		1931968496 : 5;		4604559352 : 5;		1931968501 : 5;		1398079475 : 5;		4594335734 : 5;		1931968508 : 5;		376619005 : 5;		1363263487 : 5;

Origin	1363263508	
		571883509 : 5;		4604559345 : 5;		1931968496 : 5;		4604559352 : 5;		1931968501 : 5;		1398079475 : 5;		4594335734 : 5;		1931968508 : 5;		376619005 : 5;		1363263487 : 5;

Origin	535167001	
		571883509 : 5;		4604559345 : 5;		1931968496 : 5;		4604559352 : 5;		1931968501 : 5;		1398079475 : 5;		4594335734 : 5;		1931968508 : 5;		376619005 : 5;		1363263487 : 5;

