<NUMBER OF ZONES> 23219 
<TOTAL OD FLOW> 275
<END OF METADATA> 

Origin	232082341	
		1363263601 : 1;		1363263517 : 1;

Origin	4602578367	
		7018501234 : 5;		6690227946 : 2;		4604484210 : 1;		1931970935 : 4;		1931970935 : 4;

Origin	172510077	
		172510077 : 1;

Origin	232119579	
		1395048591 : 2;		376617881 : 2;

Origin	626491396	
		1790473242 : 2;

Origin	240713181	
		7018501234 : 1;

Origin	4604149174	
		4604554268 : 4;		3066261840 : 5;		3066261840 : 1;

Origin	6657231950	
		254643965 : 1;

Origin	4604305423	
		233497179 : 3;

Origin	626325205	
		2642043056 : 5;		376617881 : 3;		1363263538 : 2;

Origin	4935012103	
		1363270467 : 1;		385614453 : 2;		4604554268 : 1;		385614453 : 2;		243472537 : 1;		232147312 : 3;		243472537 : 4;		1363263538 : 1;

Origin	4935012075	
		7057454039 : 2;		7057454039 : 1;		7057454039 : 4;

Origin	4591897651	
		394634486 : 4;		376617881 : 5;

Origin	1189615975	
		1363270467 : 2;		385614453 : 1;		4604554268 : 5;		385614453 : 1;		243472537 : 5;		232147312 : 3;		243472537 : 4;		1363263538 : 2;

Origin	4593195689	
		376617881 : 3;

Origin	248018507	
		1363270467 : 4;		385614453 : 3;		4604554268 : 3;		385614453 : 3;		243472537 : 4;		232147312 : 1;		243472537 : 1;		1363263538 : 4;

Origin	4728054624	
		1363270467 : 1;		233497179 : 3;		2642043056 : 4;		1363263538 : 1;		1363270467 : 4;		2642043056 : 5;		1363263538 : 3;

Origin	139642419	
		139642419 : 5;		139642419 : 5;		139642419 : 4;		139642419 : 1;

Origin	626325192	
		4604554268 : 5;

Origin	378665927	
		6497099643 : 4;		6497099643 : 4;

Origin	247037912	
		376617881 : 2;		376617881 : 2;

Origin	6690306584	
		4604554268 : 1;		3066261840 : 3;		233497179 : 4;		3066261840 : 4;

Origin	3973611745	
		1363270467 : 1;		4604554268 : 2;		3066261840 : 1;		3066261840 : 1;

Origin	7135854972	
		7135854972 : 5;

Origin	254643958	
		254643965 : 2;

Origin	240713162	
		233497179 : 1;

Origin	626489006	
		2642043056 : 1;		376617881 : 1;		1363263538 : 3;

Origin	5231442833	
		4598515873 : 2;		1931970935 : 1;		1931970935 : 5;

Origin	1363273346	
		385614453 : 1;		4604700548 : 5;		385614453 : 3;		1395048591 : 5;		376617881 : 2;

Origin	1363263632	
		232147312 : 2;

Origin	1363263237	
		5233220878 : 2;

Origin	4592983272	
		1363270467 : 1;		232147312 : 1;		243234038 : 3;

Origin	535167020	
		385614453 : 5;

Origin	5284919543	
		4604700548 : 4;		5284714521 : 4;		5284714521 : 5;

Origin	6897534219	
		385614453 : 5;

Origin	249392268	
		1395048591 : 1;

Origin	7025068757	
		376617881 : 5;

