<NUMBER OF ZONES> 23219 
<TOTAL OD FLOW> 
<END OF METADATA> 

Origin	232119730	
		7043034834 : 5;		408999681 : 5;

Origin	234839739	
		373101943 : 5;		385614453 : 5;

Origin	1783639826	
		6690227946 : 5;		1931970935 : 5;		1931970935 : 5;

Origin	172510077	
		172510077 : 5;

Origin	3022208069	
		1846569504 : 5;		394634477 : 5;

Origin	4604149174	
		7043034834 : 5;		1683121556 : 5;

Origin	243671016	
		243671016 : 5;		243671016 : 5;

Origin	3066270310	
		3066270310 : 5;

Origin	254643978	
		254652237 : 5;

Origin	254641251	
		254641251 : 5;		254641251 : 5;

Origin	626489006	
		2642043056 : 5;		394634477 : 5;		2642043056 : 5;		394634477 : 5;		409000687 : 5;

Origin	626325205	
		409000687 : 5;

Origin	5015699447	
		1363270467 : 5;		1363270467 : 5;		1363270467 : 5;

Origin	4935012103	
		385614453 : 5;		6497099643 : 5;		385614453 : 5;		243472537 : 5;		232147312 : 5;		243472537 : 5;		409000687 : 5;		385614453 : 5;		6497099643 : 5;		385614453 : 5;		243472537 : 5;		232147312 : 5;		243472537 : 5;		409000687 : 5;		385614453 : 5;		6497099643 : 5;		385614453 : 5;		243472537 : 5;		232147312 : 5;		243472537 : 5;		409000687 : 5;

Origin	4935012075	
		7057454039 : 5;		7057454039 : 5;		7057454039 : 5;

Origin	4591897651	
		394634477 : 5;		394634477 : 5;		394634477 : 5;

Origin	4728054624	
		1790473242 : 5;		2642043056 : 5;		394634477 : 5;		409000687 : 5;

Origin	139642419	
		139642419 : 5;		139642419 : 5;		139642419 : 5;		139642419 : 5;

Origin	378665927	
		6497099643 : 5;		6497099643 : 5;		6497099643 : 5;

Origin	626325192	
		233497179 : 5;

Origin	4726909201	
		571883466 : 5;		2642043056 : 5;		394634477 : 5;		409000687 : 5;

Origin	6690306584	
		6497099643 : 5;		3066261840 : 5;		3066261840 : 5;

Origin	1718044834	
		233497179 : 5;

Origin	1444025977	
		1363270467 : 5;

Origin	172549834	
		5284714521 : 5;		3066261840 : 5;		1683121556 : 5;		3066261840 : 5;

Origin	7018501234	
		7018501234 : 5;

Origin	512027102	
		512027102 : 5;

Origin	240701690	
		385614453 : 5;		385614453 : 5;		1846569504 : 5;		394634463 : 5;

Origin	6438089513	
		6690227946 : 5;		1931970935 : 5;		232147312 : 5;		1931970935 : 5;

Origin	1114938200	
		1114938200 : 5;

Origin	5228844714	
		1363270467 : 5;		232147312 : 5;		409000687 : 5;

Origin	1223811797	
		373101943 : 5;		385614453 : 5;

Origin	1541260417	
		3066269961 : 5;		4604554270 : 5;		4604554270 : 5;

Origin	886297460	
		2642043056 : 5;		394634477 : 5;

